LAMMPS (23 Jun 2022 - Update 1)
# Read restart
read_restart ./pgnpmf/4060/equpmf32.res
Reading restart file ...
  restart file = 23 Jun 2022, LAMMPS = 23 Jun 2022
  restoring atom style atomic from restart
  orthogonal box = (1658.4293 1658.4293 1658.4293) to (2341.5707 2341.5707 2341.5707)
  restoring pair style table from restart
  1000 atoms
  read_restart CPU = 0.004 seconds

# Settings

pair_style table spline 9941

pair_coeff 1 1 ./pgnpmf/N20.txt DE_GNP 75.6
pair_coeff 2 2 ./pgnpmf/N100.txt DE_GNP 115.92
pair_coeff 1 2 ./pgnpmf/mixed_potential.txt DE_GNP 95.66

#Neigh_list Calc Frequency

neigh_modify delay 0 every 1 check yes

# Saving Frequency (50 frames)

variable ts_save equal 5000

# Dump
#dump_modify 1 first no sort id
dump 2 all cfg 50000 ./pgnpmf/4060/equilibration/trajectory/dumpgen.tens_*.cfg mass type xs ys zs fx fy fz
dump_modify 2 element N20 N100

# thermo_style
thermo_style custom step temp press pe density ke etotal lx ly lz xlo xhi ylo yhi zlo zhi vol dt time cpu tpcpu spcpu cpuremain

# run info
timestep 0.25
thermo 200

# fix

fix 1 all momentum 1000 linear 1 1 1 angular
variable T equal 300
fix 2 all nvt temp 300 370000 100.0

run 100000
Generated 0 of 1 mixed pair_coeff terms from geometric mixing rule
Unused restart file global fix info:
  fix style: npt, fix ID: 5
  update every 1 steps, delay 0 steps, check yes
Step          Temp          Press          PotEng        Density         KinEng         TotEng           Lx             Ly             Lz            Xlo            Xhi            Ylo            Yhi            Zlo            Zhi           Volume           Dt            Time           CPU           T/CPU          S/CPU         CPULeft
33010000   304.20042     -0.22927246    -38208710       1.7811742      905.85691     -38207804       683.14146      683.14146      683.14146      1658.4293      2341.5707      1658.4293      2341.5707      1658.4293      2341.5707      3.1881e+08     0.25           9010000        0              0              0              0
Averages over the last 251 of 501 rows, steps 33060000 to 33110000:
Temp Press PotEng Density KinEng TotEng Lx Ly Lz Xlo Xhi Ylo Yhi Zlo Zhi Volume Dt
277048 1457.21 -3.76491e+07 1.78117 825001 -3.68241e+07 683.141 683.141 683.141 1658.43 2341.57 1658.43 2341.57 1658.43 2341.57 3.1881e+08 0.25
Loop time of 6.21438 on 4 procs for 100000 steps with 1000 atoms

unfix 2

fix 3 all nvt temp 370000 370000 $(100.0*dt) #iso 1.0 1.0 $(1000.0*dt)
fix 3 all nvt temp 370000 370000 25

run 500000
Generated 0 of 1 mixed pair_coeff terms from geometric mixing rule
Step          Temp          Press          PotEng        Density         KinEng         TotEng           Lx             Ly             Lz            Xlo            Xhi            Ylo            Yhi            Zlo            Zhi           Volume           Dt            Time           CPU           T/CPU          S/CPU         CPULeft
33110000   363335.47      2032.3426     -37458657       1.7811742      1081951       -36376706       683.14146      683.14146      683.14146      1658.4293      2341.5707      1658.4293      2341.5707      1658.4293      2341.5707      3.1881e+08     0.25           9035000        0              0              0              0
Averages over the last 1251 of 2501 rows, steps 33360000 to 33610000:
Temp Press PotEng Density KinEng TotEng Lx Ly Lz Xlo Xhi Ylo Yhi Zlo Zhi Volume Dt
370016 1654.74 -3.7516e+07 1.78117 1.10184e+06 -3.64142e+07 683.141 683.141 683.141 1658.43 2341.57 1658.43 2341.57 1658.43 2341.57 3.1881e+08 0.25
Loop time of 31.7262 on 4 procs for 500000 steps with 1000 atoms

unfix 3

fix 4 all nvt temp 370000 300 100.0

run 100000
Generated 0 of 1 mixed pair_coeff terms from geometric mixing rule
Step          Temp          Press          PotEng        Density         KinEng         TotEng           Lx             Ly             Lz            Xlo            Xhi            Ylo            Yhi            Zlo            Zhi           Volume           Dt            Time           CPU           T/CPU          S/CPU         CPULeft
33610000   389168.55      1575.2411     -37659411       1.7811742      1158877.5     -36500533       683.14146      683.14146      683.14146      1658.4293      2341.5707      1658.4293      2341.5707      1658.4293      2341.5707      3.1881e+08     0.25           9160000        0              0              0              0
Averages over the last 251 of 501 rows, steps 33660000 to 33710000:
Temp Press PotEng Density KinEng TotEng Lx Ly Lz Xlo Xhi Ylo Yhi Zlo Zhi Volume Dt
93786.8 -40.524 -3.82395e+07 1.78117 279281 -3.79603e+07 683.141 683.141 683.141 1658.43 2341.57 1658.43 2341.57 1658.43 2341.57 3.1881e+08 0.25
Loop time of 6.30123 on 4 procs for 100000 steps with 1000 atoms

unfix 4

fix 5 all npt temp 300 300 $(100.0*dt) iso 1.0 1.0 $(1000.0*dt)
fix 5 all npt temp 300 300 25 iso 1.0 1.0 $(1000.0*dt)
fix 5 all npt temp 300 300 25 iso 1.0 1.0 250

run 300000
Generated 0 of 1 mixed pair_coeff terms from geometric mixing rule
Step          Temp          Press          PotEng        Density         KinEng         TotEng           Lx             Ly             Lz            Xlo            Xhi            Ylo            Yhi            Zlo            Zhi           Volume           Dt            Time           CPU           T/CPU          S/CPU         CPULeft
33710000   2365.6552     -638.46006     -38467753       1.7811742      7044.5173     -38460709       683.14146      683.14146      683.14146      1658.4293      2341.5707      1658.4293      2341.5707      1658.4293      2341.5707      3.1881e+08     0.25           9185000        0              0              0              0
Averages over the last 751 of 1501 rows, steps 33860000 to 34010000:
Temp Press PotEng Density KinEng TotEng Lx Ly Lz Xlo Xhi Ylo Yhi Zlo Zhi Volume Dt
304.436 1.11316 -3.88242e+07 1.8135 906.559 -3.88233e+07 679.059 679.059 679.059 1660.47 2339.53 1660.47 2339.53 1660.47 2339.53 3.13128e+08 0.25
Loop time of 22.5963 on 4 procs for 300000 steps with 1000 atoms

# run_style
run_style verlet

# write restart
write_restart ./pgnpmf/4060/equpmf33.res
System init for write_restart ...
Generated 0 of 1 mixed pair_coeff terms from geometric mixing rule
