LAMMPS (23 Jun 2022 - Update 1)
# Read restart
read_restart ./pgnpmf/4060/equpmf24.res
Reading restart file ...
  restart file = 23 Jun 2022, LAMMPS = 23 Jun 2022
  restoring atom style atomic from restart
  orthogonal box = (1599.3745 1599.3745 1599.3745) to (2400.6255 2400.6255 2400.6255)
  restoring pair style table from restart
  1000 atoms
  read_restart CPU = 0.006 seconds

# Settings

pair_style table spline 9941

pair_coeff 1 1 ./pgnpmf/N20.txt DE_GNP 75.6
pair_coeff 2 2 ./pgnpmf/N100.txt DE_GNP 115.92
pair_coeff 1 2 ./pgnpmf/mixed_potential.txt DE_GNP 95.66

#Neigh_list Calc Frequency

neigh_modify delay 0 every 1 check yes

# Saving Frequency (50 frames)

variable ts_save equal 5000

# Dump
#dump_modify 1 first no sort id
dump 2 all cfg 50000 ./pgnpmf/4060/equilibration/trajectory/dumpgen.tens_*.cfg mass type xs ys zs fx fy fz
dump_modify 2 element N20 N100

# thermo_style
thermo_style custom step temp press pe density ke etotal lx ly lz xlo xhi ylo yhi zlo zhi vol dt time cpu tpcpu spcpu cpuremain

# run info
timestep 0.25
thermo 200

# fix

fix 1 all momentum 1000 linear 1 1 1 angular
variable T equal 300
fix 2 all nvt temp 300 370000 100.0

run 100000
Generated 0 of 1 mixed pair_coeff terms from geometric mixing rule
Unused restart file global fix info:
  fix style: npt, fix ID: 5
  update every 1 steps, delay 0 steps, check yes
Step          Temp          Press          PotEng        Density         KinEng         TotEng           Lx             Ly             Lz            Xlo            Xhi            Ylo            Yhi            Zlo            Zhi           Volume           Dt            Time           CPU           T/CPU          S/CPU         CPULeft
25010000   310.79825      3.2271036     -33000808       1.1039072      925.50412     -32999883       801.25101      801.25101      801.25101      1599.3745      2400.6255      1599.3745      2400.6255      1599.3745      2400.6255      5.1440569e+08  0.25           7010000        0              0              0              0
Averages over the last 251 of 501 rows, steps 25060000 to 25110000:
Temp Press PotEng Density KinEng TotEng Lx Ly Lz Xlo Xhi Ylo Yhi Zlo Zhi Volume Dt
277579 287.691 -3.28748e+07 1.10391 826583 -3.20482e+07 801.251 801.251 801.251 1599.37 2400.63 1599.37 2400.63 1599.37 2400.63 5.14406e+08 0.25
Loop time of 5.55458 on 4 procs for 100000 steps with 1000 atoms

unfix 2

fix 3 all nvt temp 370000 370000 $(100.0*dt) #iso 1.0 1.0 $(1000.0*dt)
fix 3 all nvt temp 370000 370000 25

run 500000
Generated 0 of 1 mixed pair_coeff terms from geometric mixing rule
Step          Temp          Press          PotEng        Density         KinEng         TotEng           Lx             Ly             Lz            Xlo            Xhi            Ylo            Yhi            Zlo            Zhi           Volume           Dt            Time           CPU           T/CPU          S/CPU         CPULeft
25110000   384682.41      396.00212     -32711669       1.1039072      1145518.5     -31566151       801.25101      801.25101      801.25101      1599.3745      2400.6255      1599.3745      2400.6255      1599.3745      2400.6255      5.1440569e+08  0.25           7035000        0              0              0              0
Averages over the last 1251 of 2501 rows, steps 25360000 to 25610000:
Temp Press PotEng Density KinEng TotEng Lx Ly Lz Xlo Xhi Ylo Yhi Zlo Zhi Volume Dt
370001 30.64 -3.17759e+07 1.10391 1.1018e+06 -3.06741e+07 801.251 801.251 801.251 1599.37 2400.63 1599.37 2400.63 1599.37 2400.63 5.14406e+08 0.25
Loop time of 27.2175 on 4 procs for 500000 steps with 1000 atoms

unfix 3

fix 4 all nvt temp 370000 300 100.0

run 100000
Generated 0 of 1 mixed pair_coeff terms from geometric mixing rule
Step          Temp          Press          PotEng        Density         KinEng         TotEng           Lx             Ly             Lz            Xlo            Xhi            Ylo            Yhi            Zlo            Zhi           Volume           Dt            Time           CPU           T/CPU          S/CPU         CPULeft
25610000   359513.69      19.457369     -31708645       1.1039072      1070570.4     -30638075       801.25101      801.25101      801.25101      1599.3745      2400.6255      1599.3745      2400.6255      1599.3745      2400.6255      5.1440569e+08  0.25           7160000        0              0              0              0
Averages over the last 251 of 501 rows, steps 25660000 to 25710000:
Temp Press PotEng Density KinEng TotEng Lx Ly Lz Xlo Xhi Ylo Yhi Zlo Zhi Volume Dt
93718.2 -608.321 -3.22575e+07 1.10391 279077 -3.19784e+07 801.251 801.251 801.251 1599.37 2400.63 1599.37 2400.63 1599.37 2400.63 5.14406e+08 0.25
Loop time of 5.44867 on 4 procs for 100000 steps with 1000 atoms

unfix 4

fix 5 all npt temp 300 300 $(100.0*dt) iso 1.0 1.0 $(1000.0*dt)
fix 5 all npt temp 300 300 25 iso 1.0 1.0 $(1000.0*dt)
fix 5 all npt temp 300 300 25 iso 1.0 1.0 250

run 300000
Generated 0 of 1 mixed pair_coeff terms from geometric mixing rule
Step          Temp          Press          PotEng        Density         KinEng         TotEng           Lx             Ly             Lz            Xlo            Xhi            Ylo            Yhi            Zlo            Zhi           Volume           Dt            Time           CPU           T/CPU          S/CPU         CPULeft
25710000   2365.2354     -771.27119     -32506010       1.1039072      7043.267      -32498966       801.25101      801.25101      801.25101      1599.3745      2400.6255      1599.3745      2400.6255      1599.3745      2400.6255      5.1440569e+08  0.25           7185000        0              0              0              0
Averages over the last 751 of 1501 rows, steps 25860000 to 26010000:
Temp Press PotEng Density KinEng TotEng Lx Ly Lz Xlo Xhi Ylo Yhi Zlo Zhi Volume Dt
313.135 1.07603 -3.35661e+07 1.17405 932.463 -3.35652e+07 784.967 784.967 784.967 1607.52 2392.48 1607.52 2392.48 1607.52 2392.48 4.83678e+08 0.25
Loop time of 19.7281 on 4 procs for 300000 steps with 1000 atoms

# run_style
run_style verlet

# write restart
write_restart ./pgnpmf/4060/equpmf25.res
System init for write_restart ...
Generated 0 of 1 mixed pair_coeff terms from geometric mixing rule
