LAMMPS (23 Jun 2022 - Update 1)
# Read restart
read_restart ./pgnpmf/4060/equpmf36.res
Reading restart file ...
  restart file = 23 Jun 2022, LAMMPS = 23 Jun 2022
  restoring atom style atomic from restart
  orthogonal box = (1661.435 1661.435 1661.435) to (2338.565 2338.565 2338.565)
  restoring pair style table from restart
  1000 atoms
  read_restart CPU = 0.005 seconds

# Settings

pair_style table spline 9941

pair_coeff 1 1 ./pgnpmf/N20.txt DE_GNP 75.6
pair_coeff 2 2 ./pgnpmf/N100.txt DE_GNP 115.92
pair_coeff 1 2 ./pgnpmf/mixed_potential.txt DE_GNP 95.66

#Neigh_list Calc Frequency

neigh_modify delay 0 every 1 check yes

# Saving Frequency (50 frames)

variable ts_save equal 5000

# Dump
#dump_modify 1 first no sort id
dump 2 all cfg 50000 ./pgnpmf/4060/equilibration/trajectory/dumpgen.tens_*.cfg mass type xs ys zs fx fy fz
dump_modify 2 element N20 N100

# thermo_style
thermo_style custom step temp press pe density ke etotal lx ly lz xlo xhi ylo yhi zlo zhi vol dt time cpu tpcpu spcpu cpuremain

# run info
timestep 0.25
thermo 200

# fix

fix 1 all momentum 1000 linear 1 1 1 angular
variable T equal 300
fix 2 all nvt temp 300 370000 100.0

run 100000
Generated 0 of 1 mixed pair_coeff terms from geometric mixing rule
Unused restart file global fix info:
  fix style: npt, fix ID: 5
  update every 1 steps, delay 0 steps, check yes
Step          Temp          Press          PotEng        Density         KinEng         TotEng           Lx             Ly             Lz            Xlo            Xhi            Ylo            Yhi            Zlo            Zhi           Volume           Dt            Time           CPU           T/CPU          S/CPU         CPULeft
37010000   316.59151     -6.8134274     -38978233       1.8290361      942.75546     -38977290       677.12994      677.12994      677.12994      1661.435       2338.565       1661.435       2338.565       1661.435       2338.565       3.1046743e+08  0.25           10010000       0              0              0              0
Averages over the last 251 of 501 rows, steps 37060000 to 37110000:
Temp Press PotEng Density KinEng TotEng Lx Ly Lz Xlo Xhi Ylo Yhi Zlo Zhi Volume Dt
277215 1954.89 -3.83524e+07 1.82904 825500 -3.75269e+07 677.13 677.13 677.13 1661.43 2338.57 1661.43 2338.57 1661.43 2338.57 3.10467e+08 0.25
Loop time of 7.42836 on 4 procs for 100000 steps with 1000 atoms

unfix 2

fix 3 all nvt temp 370000 370000 $(100.0*dt) #iso 1.0 1.0 $(1000.0*dt)
fix 3 all nvt temp 370000 370000 25

run 500000
Generated 0 of 1 mixed pair_coeff terms from geometric mixing rule
Step          Temp          Press          PotEng        Density         KinEng         TotEng           Lx             Ly             Lz            Xlo            Xhi            Ylo            Yhi            Zlo            Zhi           Volume           Dt            Time           CPU           T/CPU          S/CPU         CPULeft
37110000   380812.18      2741.6876     -38033953       1.8290361      1133993.7     -36899959       677.12994      677.12994      677.12994      1661.435       2338.565       1661.435       2338.565       1661.435       2338.565       3.1046743e+08  0.25           10035000       0              0              0              0
Averages over the last 1251 of 2501 rows, steps 37360000 to 37610000:
Temp Press PotEng Density KinEng TotEng Lx Ly Lz Xlo Xhi Ylo Yhi Zlo Zhi Volume Dt
369956 2352.13 -3.79298e+07 1.82904 1.10166e+06 -3.68282e+07 677.13 677.13 677.13 1661.43 2338.57 1661.43 2338.57 1661.43 2338.57 3.10467e+08 0.25
Loop time of 37.8828 on 4 procs for 500000 steps with 1000 atoms

unfix 3

fix 4 all nvt temp 370000 300 100.0

run 100000
Generated 0 of 1 mixed pair_coeff terms from geometric mixing rule
Step          Temp          Press          PotEng        Density         KinEng         TotEng           Lx             Ly             Lz            Xlo            Xhi            Ylo            Yhi            Zlo            Zhi           Volume           Dt            Time           CPU           T/CPU          S/CPU         CPULeft
37610000   365313.71      2290.8771     -37942628       1.8290361      1087841.8     -36854786       677.12994      677.12994      677.12994      1661.435       2338.565       1661.435       2338.565       1661.435       2338.565       3.1046743e+08  0.25           10160000       0              0              0              0
Averages over the last 251 of 501 rows, steps 37660000 to 37710000:
Temp Press PotEng Density KinEng TotEng Lx Ly Lz Xlo Xhi Ylo Yhi Zlo Zhi Volume Dt
93668.6 609.334 -3.8688e+07 1.82904 278929 -3.84091e+07 677.13 677.13 677.13 1661.43 2338.57 1661.43 2338.57 1661.43 2338.57 3.10467e+08 0.25
Loop time of 7.48601 on 4 procs for 100000 steps with 1000 atoms

unfix 4

fix 5 all npt temp 300 300 $(100.0*dt) iso 1.0 1.0 $(1000.0*dt)
fix 5 all npt temp 300 300 25 iso 1.0 1.0 $(1000.0*dt)
fix 5 all npt temp 300 300 25 iso 1.0 1.0 250

run 300000
Generated 0 of 1 mixed pair_coeff terms from geometric mixing rule
Step          Temp          Press          PotEng        Density         KinEng         TotEng           Lx             Ly             Lz            Xlo            Xhi            Ylo            Yhi            Zlo            Zhi           Volume           Dt            Time           CPU           T/CPU          S/CPU         CPULeft
37710000   2370.3354      70.438915     -38951046       1.8290361      7058.4542     -38943988       677.12994      677.12994      677.12994      1661.435       2338.565       1661.435       2338.565       1661.435       2338.565       3.1046743e+08  0.25           10185000       0              0              0              0
Averages over the last 751 of 1501 rows, steps 37860000 to 38010000:
Temp Press PotEng Density KinEng TotEng Lx Ly Lz Xlo Xhi Ylo Yhi Zlo Zhi Volume Dt
301.502 1.06062 -3.90262e+07 1.83249 897.822 -3.90253e+07 676.704 676.704 676.704 1661.65 2338.35 1661.65 2338.35 1661.65 2338.35 3.09882e+08 0.25
Loop time of 26.8257 on 4 procs for 300000 steps with 1000 atoms

# run_style
run_style verlet

# write restart
write_restart ./pgnpmf/4060/equpmf37.res
System init for write_restart ...
Generated 0 of 1 mixed pair_coeff terms from geometric mixing rule
