LAMMPS (23 Jun 2022 - Update 1)
# Read restart
read_restart ./pgnpmf/4060/equpmf37.res
Reading restart file ...
  restart file = 23 Jun 2022, LAMMPS = 23 Jun 2022
  restoring atom style atomic from restart
  orthogonal box = (1661.6759 1661.6759 1661.6759) to (2338.3241 2338.3241 2338.3241)
  restoring pair style table from restart
  1000 atoms
  read_restart CPU = 0.004 seconds

# Settings

pair_style table spline 9941

pair_coeff 1 1 ./pgnpmf/N20.txt DE_GNP 75.6
pair_coeff 2 2 ./pgnpmf/N100.txt DE_GNP 115.92
pair_coeff 1 2 ./pgnpmf/mixed_potential.txt DE_GNP 95.66

#Neigh_list Calc Frequency

neigh_modify delay 0 every 1 check yes

# Saving Frequency (50 frames)

variable ts_save equal 5000

# Dump
#dump_modify 1 first no sort id
dump 2 all cfg 50000 ./pgnpmf/4060/equilibration/trajectory/dumpgen.tens_*.cfg mass type xs ys zs fx fy fz
dump_modify 2 element N20 N100

# thermo_style
thermo_style custom step temp press pe density ke etotal lx ly lz xlo xhi ylo yhi zlo zhi vol dt time cpu tpcpu spcpu cpuremain

# run info
timestep 0.25
thermo 200

# fix

fix 1 all momentum 1000 linear 1 1 1 angular
variable T equal 300
fix 2 all nvt temp 300 370000 100.0

run 100000
Generated 0 of 1 mixed pair_coeff terms from geometric mixing rule
Unused restart file global fix info:
  fix style: npt, fix ID: 5
  update every 1 steps, delay 0 steps, check yes
Step          Temp          Press          PotEng        Density         KinEng         TotEng           Lx             Ly             Lz            Xlo            Xhi            Ylo            Yhi            Zlo            Zhi           Volume           Dt            Time           CPU           T/CPU          S/CPU         CPULeft
38010000   315.44329     -1.683919      -39069509       1.8329459      939.33626     -39068569       676.64815      676.64815      676.64815      1661.6759      2338.3241      1661.6759      2338.3241      1661.6759      2338.3241      3.098052e+08   0.25           10260000       0              0              0              0
Averages over the last 251 of 501 rows, steps 38060000 to 38110000:
Temp Press PotEng Density KinEng TotEng Lx Ly Lz Xlo Xhi Ylo Yhi Zlo Zhi Volume Dt
276975 1958.67 -3.83763e+07 1.83295 824784 -3.75515e+07 676.648 676.648 676.648 1661.68 2338.32 1661.68 2338.32 1661.68 2338.32 3.09805e+08 0.25
Loop time of 7.41337 on 4 procs for 100000 steps with 1000 atoms

unfix 2

fix 3 all nvt temp 370000 370000 $(100.0*dt) #iso 1.0 1.0 $(1000.0*dt)
fix 3 all nvt temp 370000 370000 25

run 500000
Generated 0 of 1 mixed pair_coeff terms from geometric mixing rule
Step          Temp          Press          PotEng        Density         KinEng         TotEng           Lx             Ly             Lz            Xlo            Xhi            Ylo            Yhi            Zlo            Zhi           Volume           Dt            Time           CPU           T/CPU          S/CPU         CPULeft
38110000   380703.93      2759.9005     -38091838       1.8329459      1133671.3     -36958167       676.64815      676.64815      676.64815      1661.6759      2338.3241      1661.6759      2338.3241      1661.6759      2338.3241      3.098052e+08   0.25           10285000       0              0              0              0
Averages over the last 1251 of 2501 rows, steps 38360000 to 38610000:
Temp Press PotEng Density KinEng TotEng Lx Ly Lz Xlo Xhi Ylo Yhi Zlo Zhi Volume Dt
369903 2474.97 -3.7961e+07 1.83295 1.10151e+06 -3.68595e+07 676.648 676.648 676.648 1661.68 2338.32 1661.68 2338.32 1661.68 2338.32 3.09805e+08 0.25
Loop time of 37.2874 on 4 procs for 500000 steps with 1000 atoms

unfix 3

fix 4 all nvt temp 370000 300 100.0

run 100000
Generated 0 of 1 mixed pair_coeff terms from geometric mixing rule
Step          Temp          Press          PotEng        Density         KinEng         TotEng           Lx             Ly             Lz            Xlo            Xhi            Ylo            Yhi            Zlo            Zhi           Volume           Dt            Time           CPU           T/CPU          S/CPU         CPULeft
38610000   373058.97      2624.9126     -37856034       1.8329459      1110905.9     -36745128       676.64815      676.64815      676.64815      1661.6759      2338.3241      1661.6759      2338.3241      1661.6759      2338.3241      3.098052e+08   0.25           10410000       0              0              0              0
Averages over the last 251 of 501 rows, steps 38660000 to 38710000:
Temp Press PotEng Density KinEng TotEng Lx Ly Lz Xlo Xhi Ylo Yhi Zlo Zhi Volume Dt
93822.5 803.694 -3.8634e+07 1.83295 279387 -3.83546e+07 676.648 676.648 676.648 1661.68 2338.32 1661.68 2338.32 1661.68 2338.32 3.09805e+08 0.25
Loop time of 7.52596 on 4 procs for 100000 steps with 1000 atoms

unfix 4

fix 5 all npt temp 300 300 $(100.0*dt) iso 1.0 1.0 $(1000.0*dt)
fix 5 all npt temp 300 300 25 iso 1.0 1.0 $(1000.0*dt)
fix 5 all npt temp 300 300 25 iso 1.0 1.0 250

run 300000
Generated 0 of 1 mixed pair_coeff terms from geometric mixing rule
Step          Temp          Press          PotEng        Density         KinEng         TotEng           Lx             Ly             Lz            Xlo            Xhi            Ylo            Yhi            Zlo            Zhi           Volume           Dt            Time           CPU           T/CPU          S/CPU         CPULeft
38710000   2385.3181      281.30897     -38835292       1.8329459      7103.07       -38828189       676.64815      676.64815      676.64815      1661.6759      2338.3241      1661.6759      2338.3241      1661.6759      2338.3241      3.098052e+08   0.25           10435000       0              0              0              0
Averages over the last 751 of 1501 rows, steps 38860000 to 39010000:
Temp Press PotEng Density KinEng TotEng Lx Ly Lz Xlo Xhi Ylo Yhi Zlo Zhi Volume Dt
301.729 0.706005 -3.89421e+07 1.82996 898.497 -3.89412e+07 677.016 677.016 677.016 1661.49 2338.51 1661.49 2338.51 1661.49 2338.51 3.10311e+08 0.25
Loop time of 26.4246 on 4 procs for 300000 steps with 1000 atoms

# run_style
run_style verlet

# write restart
write_restart ./pgnpmf/4060/equpmf38.res
System init for write_restart ...
Generated 0 of 1 mixed pair_coeff terms from geometric mixing rule
