LAMMPS (23 Jun 2022 - Update 1)
# Read restart
read_restart ./pgnpmf/4060/equpmf67.res
Reading restart file ...
  restart file = 23 Jun 2022, LAMMPS = 23 Jun 2022
  restoring atom style atomic from restart
  orthogonal box = (1662.3673 1662.3673 1662.3673) to (2337.6327 2337.6327 2337.6327)
  restoring pair style table from restart
  1000 atoms
  read_restart CPU = 0.004 seconds

# Settings

pair_style table spline 9941

pair_coeff 1 1 ./pgnpmf/N20.txt DE_GNP 75.6
pair_coeff 2 2 ./pgnpmf/N100.txt DE_GNP 115.92
pair_coeff 1 2 ./pgnpmf/mixed_potential.txt DE_GNP 95.66

#Neigh_list Calc Frequency

neigh_modify delay 0 every 1 check yes

# Saving Frequency (50 frames)

variable ts_save equal 5000

# Dump
#dump_modify 1 first no sort id
dump 2 all cfg 50000 ./pgnpmf/4060/equilibration/trajectory/dumpgen.tens_*.cfg mass type xs ys zs fx fy fz
dump_modify 2 element N20 N100

# thermo_style
thermo_style custom step temp press pe density ke etotal lx ly lz xlo xhi ylo yhi zlo zhi vol dt time cpu tpcpu spcpu cpuremain

# run info
timestep 0.25
thermo 200

# fix

fix 1 all momentum 1000 linear 1 1 1 angular
variable T equal 300
fix 2 all nvt temp 300 370000 100.0

run 100000
Generated 0 of 1 mixed pair_coeff terms from geometric mixing rule
Unused restart file global fix info:
  fix style: npt, fix ID: 5
  update every 1 steps, delay 0 steps, check yes
Step          Temp          Press          PotEng        Density         KinEng         TotEng           Lx             Ly             Lz            Xlo            Xhi            Ylo            Yhi            Zlo            Zhi           Volume           Dt            Time           CPU           T/CPU          S/CPU         CPULeft
68010000   294.69292     -10.782084     -39065542       1.8442289      877.5452      -39064665       675.26541      675.26541      675.26541      1662.3673      2337.6327      1662.3673      2337.6327      1662.3673      2337.6327      3.079098e+08   0.25           17760000       0              0              0              0
Averages over the last 251 of 501 rows, steps 68060000 to 68110000:
Temp Press PotEng Density KinEng TotEng Lx Ly Lz Xlo Xhi Ylo Yhi Zlo Zhi Volume Dt
277423 1918.87 -3.84563e+07 1.84423 826117 -3.76302e+07 675.265 675.265 675.265 1662.37 2337.63 1662.37 2337.63 1662.37 2337.63 3.0791e+08 0.25
Loop time of 7.21902 on 4 procs for 100000 steps with 1000 atoms

unfix 2

fix 3 all nvt temp 370000 370000 $(100.0*dt) #iso 1.0 1.0 $(1000.0*dt)
fix 3 all nvt temp 370000 370000 25

run 500000
Generated 0 of 1 mixed pair_coeff terms from geometric mixing rule
Step          Temp          Press          PotEng        Density         KinEng         TotEng           Lx             Ly             Lz            Xlo            Xhi            Ylo            Yhi            Zlo            Zhi           Volume           Dt            Time           CPU           T/CPU          S/CPU         CPULeft
68110000   360750.55      2699.3193     -38303001       1.8442289      1074253.5     -37228747       675.26541      675.26541      675.26541      1662.3673      2337.6327      1662.3673      2337.6327      1662.3673      2337.6327      3.079098e+08   0.25           17785000       0              0              0              0
Averages over the last 1251 of 2501 rows, steps 68360000 to 68610000:
Temp Press PotEng Density KinEng TotEng Lx Ly Lz Xlo Xhi Ylo Yhi Zlo Zhi Volume Dt
370044 2454.54 -3.80361e+07 1.84423 1.10193e+06 -3.69342e+07 675.265 675.265 675.265 1662.37 2337.63 1662.37 2337.63 1662.37 2337.63 3.0791e+08 0.25
Loop time of 35.6883 on 4 procs for 500000 steps with 1000 atoms

unfix 3

fix 4 all nvt temp 370000 300 100.0

run 100000
Generated 0 of 1 mixed pair_coeff terms from geometric mixing rule
Step          Temp          Press          PotEng        Density         KinEng         TotEng           Lx             Ly             Lz            Xlo            Xhi            Ylo            Yhi            Zlo            Zhi           Volume           Dt            Time           CPU           T/CPU          S/CPU         CPULeft
68610000   383929.23      2518.4223     -37936758       1.8442289      1143275.7     -36793482       675.26541      675.26541      675.26541      1662.3673      2337.6327      1662.3673      2337.6327      1662.3673      2337.6327      3.079098e+08   0.25           17910000       0              0              0              0
Averages over the last 251 of 501 rows, steps 68660000 to 68710000:
Temp Press PotEng Density KinEng TotEng Lx Ly Lz Xlo Xhi Ylo Yhi Zlo Zhi Volume Dt
93702.2 706.452 -3.87341e+07 1.84423 279029 -3.8455e+07 675.265 675.265 675.265 1662.37 2337.63 1662.37 2337.63 1662.37 2337.63 3.0791e+08 0.25
Loop time of 7.22334 on 4 procs for 100000 steps with 1000 atoms

unfix 4

fix 5 all npt temp 300 300 $(100.0*dt) iso 1.0 1.0 $(1000.0*dt)
fix 5 all npt temp 300 300 25 iso 1.0 1.0 $(1000.0*dt)
fix 5 all npt temp 300 300 25 iso 1.0 1.0 250

run 300000
Generated 0 of 1 mixed pair_coeff terms from geometric mixing rule
Step          Temp          Press          PotEng        Density         KinEng         TotEng           Lx             Ly             Lz            Xlo            Xhi            Ylo            Yhi            Zlo            Zhi           Volume           Dt            Time           CPU           T/CPU          S/CPU         CPULeft
68710000   2381.0534      136.20577     -38967040       1.8442289      7090.3705     -38959950       675.26541      675.26541      675.26541      1662.3673      2337.6327      1662.3673      2337.6327      1662.3673      2337.6327      3.079098e+08   0.25           17935000       0              0              0              0
Averages over the last 751 of 1501 rows, steps 68860000 to 69010000:
Temp Press PotEng Density KinEng TotEng Lx Ly Lz Xlo Xhi Ylo Yhi Zlo Zhi Volume Dt
301.384 1.29511 -3.90783e+07 1.84618 897.471 -3.90774e+07 675.027 675.027 675.027 1662.49 2337.51 1662.49 2337.51 1662.49 2337.51 3.07584e+08 0.25
Loop time of 25.2214 on 4 procs for 300000 steps with 1000 atoms

# run_style
run_style verlet

# write restart
write_restart ./pgnpmf/4060/equpmf68.res
System init for write_restart ...
Generated 0 of 1 mixed pair_coeff terms from geometric mixing rule
