LAMMPS (23 Jun 2022 - Update 1)
# Read restart
read_restart ./pgnpmf/4060/equpmf51.res
Reading restart file ...
  restart file = 23 Jun 2022, LAMMPS = 23 Jun 2022
  restoring atom style atomic from restart
  orthogonal box = (1662.3981 1662.3981 1662.3981) to (2337.6019 2337.6019 2337.6019)
  restoring pair style table from restart
  1000 atoms
  read_restart CPU = 0.004 seconds

# Settings

pair_style table spline 9941

pair_coeff 1 1 ./pgnpmf/N20.txt DE_GNP 75.6
pair_coeff 2 2 ./pgnpmf/N100.txt DE_GNP 115.92
pair_coeff 1 2 ./pgnpmf/mixed_potential.txt DE_GNP 95.66

#Neigh_list Calc Frequency

neigh_modify delay 0 every 1 check yes

# Saving Frequency (50 frames)

variable ts_save equal 5000

# Dump
#dump_modify 1 first no sort id
dump 2 all cfg 50000 ./pgnpmf/4060/equilibration/trajectory/dumpgen.tens_*.cfg mass type xs ys zs fx fy fz
dump_modify 2 element N20 N100

# thermo_style
thermo_style custom step temp press pe density ke etotal lx ly lz xlo xhi ylo yhi zlo zhi vol dt time cpu tpcpu spcpu cpuremain

# run info
timestep 0.25
thermo 200

# fix

fix 1 all momentum 1000 linear 1 1 1 angular
variable T equal 300
fix 2 all nvt temp 300 370000 100.0

run 100000
Generated 0 of 1 mixed pair_coeff terms from geometric mixing rule
Unused restart file global fix info:
  fix style: npt, fix ID: 5
  update every 1 steps, delay 0 steps, check yes
Step          Temp          Press          PotEng        Density         KinEng         TotEng           Lx             Ly             Lz            Xlo            Xhi            Ylo            Yhi            Zlo            Zhi           Volume           Dt            Time           CPU           T/CPU          S/CPU         CPULeft
52010000   300.74853      2.3669714     -39245635       1.8447331      895.57777     -39244740       675.20388      675.20388      675.20388      1662.3981      2337.6019      1662.3981      2337.6019      1662.3981      2337.6019      3.0782564e+08  0.25           13760000       0              0              0              0
Averages over the last 251 of 501 rows, steps 52060000 to 52110000:
Temp Press PotEng Density KinEng TotEng Lx Ly Lz Xlo Xhi Ylo Yhi Zlo Zhi Volume Dt
277651 2216.11 -3.83593e+07 1.84473 826796 -3.75325e+07 675.204 675.204 675.204 1662.4 2337.6 1662.4 2337.6 1662.4 2337.6 3.07826e+08 0.25
Loop time of 7.44775 on 4 procs for 100000 steps with 1000 atoms

unfix 2

fix 3 all nvt temp 370000 370000 $(100.0*dt) #iso 1.0 1.0 $(1000.0*dt)
fix 3 all nvt temp 370000 370000 25

run 500000
Generated 0 of 1 mixed pair_coeff terms from geometric mixing rule
Step          Temp          Press          PotEng        Density         KinEng         TotEng           Lx             Ly             Lz            Xlo            Xhi            Ylo            Yhi            Zlo            Zhi           Volume           Dt            Time           CPU           T/CPU          S/CPU         CPULeft
52110000   358891.03      2976.2518     -38025694       1.8447331      1068716.2     -36956978       675.20388      675.20388      675.20388      1662.3981      2337.6019      1662.3981      2337.6019      1662.3981      2337.6019      3.0782564e+08  0.25           13785000       0              0              0              0
Averages over the last 1251 of 2501 rows, steps 52360000 to 52610000:
Temp Press PotEng Density KinEng TotEng Lx Ly Lz Xlo Xhi Ylo Yhi Zlo Zhi Volume Dt
370063 2468.14 -3.80987e+07 1.84473 1.10198e+06 -3.69967e+07 675.204 675.204 675.204 1662.4 2337.6 1662.4 2337.6 1662.4 2337.6 3.07826e+08 0.25
Loop time of 37.0228 on 4 procs for 500000 steps with 1000 atoms

unfix 3

fix 4 all nvt temp 370000 300 100.0

run 100000
Generated 0 of 1 mixed pair_coeff terms from geometric mixing rule
Step          Temp          Press          PotEng        Density         KinEng         TotEng           Lx             Ly             Lz            Xlo            Xhi            Ylo            Yhi            Zlo            Zhi           Volume           Dt            Time           CPU           T/CPU          S/CPU         CPULeft
52610000   384301.26      2411.545      -38182401       1.8447331      1144383.5     -37038017       675.20388      675.20388      675.20388      1662.3981      2337.6019      1662.3981      2337.6019      1662.3981      2337.6019      3.0782564e+08  0.25           13910000       0              0              0              0
Averages over the last 251 of 501 rows, steps 52660000 to 52710000:
Temp Press PotEng Density KinEng TotEng Lx Ly Lz Xlo Xhi Ylo Yhi Zlo Zhi Volume Dt
93729.8 732.968 -3.87679e+07 1.84473 279111 -3.84888e+07 675.204 675.204 675.204 1662.4 2337.6 1662.4 2337.6 1662.4 2337.6 3.07826e+08 0.25
Loop time of 7.18094 on 4 procs for 100000 steps with 1000 atoms

unfix 4

fix 5 all npt temp 300 300 $(100.0*dt) iso 1.0 1.0 $(1000.0*dt)
fix 5 all npt temp 300 300 25 iso 1.0 1.0 $(1000.0*dt)
fix 5 all npt temp 300 300 25 iso 1.0 1.0 250

run 300000
Generated 0 of 1 mixed pair_coeff terms from geometric mixing rule
Step          Temp          Press          PotEng        Density         KinEng         TotEng           Lx             Ly             Lz            Xlo            Xhi            Ylo            Yhi            Zlo            Zhi           Volume           Dt            Time           CPU           T/CPU          S/CPU         CPULeft
52710000   2371.0754      164.89305     -39031514       1.8447331      7060.6578     -39024453       675.20388      675.20388      675.20388      1662.3981      2337.6019      1662.3981      2337.6019      1662.3981      2337.6019      3.0782564e+08  0.25           13935000       0              0              0              0
Averages over the last 751 of 1501 rows, steps 52860000 to 53010000:
Temp Press PotEng Density KinEng TotEng Lx Ly Lz Xlo Xhi Ylo Yhi Zlo Zhi Volume Dt
301.053 1.05101 -3.91214e+07 1.84458 896.483 -3.91205e+07 675.223 675.223 675.223 1662.39 2337.61 1662.39 2337.61 1662.39 2337.61 3.07852e+08 0.25
Loop time of 26.1294 on 4 procs for 300000 steps with 1000 atoms

# run_style
run_style verlet

# write restart
write_restart ./pgnpmf/4060/equpmf52.res
System init for write_restart ...
Generated 0 of 1 mixed pair_coeff terms from geometric mixing rule
