LAMMPS (23 Jun 2022 - Update 1)
# Read restart
read_restart ./pgnpmf/4060/equpmf64.res
Reading restart file ...
  restart file = 23 Jun 2022, LAMMPS = 23 Jun 2022
  restoring atom style atomic from restart
  orthogonal box = (1662.2819 1662.2819 1662.2819) to (2337.7181 2337.7181 2337.7181)
  restoring pair style table from restart
  1000 atoms
  read_restart CPU = 0.004 seconds

# Settings

pair_style table spline 9941

pair_coeff 1 1 ./pgnpmf/N20.txt DE_GNP 75.6
pair_coeff 2 2 ./pgnpmf/N100.txt DE_GNP 115.92
pair_coeff 1 2 ./pgnpmf/mixed_potential.txt DE_GNP 95.66

#Neigh_list Calc Frequency

neigh_modify delay 0 every 1 check yes

# Saving Frequency (50 frames)

variable ts_save equal 5000

# Dump
#dump_modify 1 first no sort id
dump 2 all cfg 50000 ./pgnpmf/4060/equilibration/trajectory/dumpgen.tens_*.cfg mass type xs ys zs fx fy fz
dump_modify 2 element N20 N100

# thermo_style
thermo_style custom step temp press pe density ke etotal lx ly lz xlo xhi ylo yhi zlo zhi vol dt time cpu tpcpu spcpu cpuremain

# run info
timestep 0.25
thermo 200

# fix

fix 1 all momentum 1000 linear 1 1 1 angular
variable T equal 300
fix 2 all nvt temp 300 370000 100.0

run 100000
Generated 0 of 1 mixed pair_coeff terms from geometric mixing rule
Unused restart file global fix info:
  fix style: npt, fix ID: 5
  update every 1 steps, delay 0 steps, check yes
Step          Temp          Press          PotEng        Density         KinEng         TotEng           Lx             Ly             Lz            Xlo            Xhi            Ylo            Yhi            Zlo            Zhi           Volume           Dt            Time           CPU           T/CPU          S/CPU         CPULeft
65010000   301.96656     -5.6563475     -39156911       1.84283        899.20486     -39156012       675.43624      675.43624      675.43624      1662.2819      2337.7181      1662.2819      2337.7181      1662.2819      2337.7181      3.0814355e+08  0.25           17010000       0              0              0              0
Averages over the last 251 of 501 rows, steps 65060000 to 65110000:
Temp Press PotEng Density KinEng TotEng Lx Ly Lz Xlo Xhi Ylo Yhi Zlo Zhi Volume Dt
277443 1979.92 -3.85597e+07 1.84283 826178 -3.77335e+07 675.436 675.436 675.436 1662.28 2337.72 1662.28 2337.72 1662.28 2337.72 3.08144e+08 0.25
Loop time of 6.36666 on 4 procs for 100000 steps with 1000 atoms

unfix 2

fix 3 all nvt temp 370000 370000 $(100.0*dt) #iso 1.0 1.0 $(1000.0*dt)
fix 3 all nvt temp 370000 370000 25

run 500000
Generated 0 of 1 mixed pair_coeff terms from geometric mixing rule
Step          Temp          Press          PotEng        Density         KinEng         TotEng           Lx             Ly             Lz            Xlo            Xhi            Ylo            Yhi            Zlo            Zhi           Volume           Dt            Time           CPU           T/CPU          S/CPU         CPULeft
65110000   387116.12      2807.1151     -38233334       1.84283        1152765.7     -37080569       675.43624      675.43624      675.43624      1662.2819      2337.7181      1662.2819      2337.7181      1662.2819      2337.7181      3.0814355e+08  0.25           17035000       0              0              0              0
Averages over the last 1251 of 2501 rows, steps 65360000 to 65610000:
Temp Press PotEng Density KinEng TotEng Lx Ly Lz Xlo Xhi Ylo Yhi Zlo Zhi Volume Dt
370209 2434.62 -3.8054e+07 1.84283 1.10242e+06 -3.69516e+07 675.436 675.436 675.436 1662.28 2337.72 1662.28 2337.72 1662.28 2337.72 3.08144e+08 0.25
Loop time of 32.0454 on 4 procs for 500000 steps with 1000 atoms

unfix 3

fix 4 all nvt temp 370000 300 100.0

run 100000
Generated 0 of 1 mixed pair_coeff terms from geometric mixing rule
Step          Temp          Press          PotEng        Density         KinEng         TotEng           Lx             Ly             Lz            Xlo            Xhi            Ylo            Yhi            Zlo            Zhi           Volume           Dt            Time           CPU           T/CPU          S/CPU         CPULeft
65610000   364653.56      2381.7986     -38088688       1.84283        1085876       -37002812       675.43624      675.43624      675.43624      1662.2819      2337.7181      1662.2819      2337.7181      1662.2819      2337.7181      3.0814355e+08  0.25           17160000       0              0              0              0
Averages over the last 251 of 501 rows, steps 65660000 to 65710000:
Temp Press PotEng Density KinEng TotEng Lx Ly Lz Xlo Xhi Ylo Yhi Zlo Zhi Volume Dt
93702.3 668.336 -3.87934e+07 1.84283 279029 -3.85143e+07 675.436 675.436 675.436 1662.28 2337.72 1662.28 2337.72 1662.28 2337.72 3.08144e+08 0.25
Loop time of 7.22799 on 4 procs for 100000 steps with 1000 atoms

unfix 4

fix 5 all npt temp 300 300 $(100.0*dt) iso 1.0 1.0 $(1000.0*dt)
fix 5 all npt temp 300 300 25 iso 1.0 1.0 $(1000.0*dt)
fix 5 all npt temp 300 300 25 iso 1.0 1.0 250

run 300000
Generated 0 of 1 mixed pair_coeff terms from geometric mixing rule
Step          Temp          Press          PotEng        Density         KinEng         TotEng           Lx             Ly             Lz            Xlo            Xhi            Ylo            Yhi            Zlo            Zhi           Volume           Dt            Time           CPU           T/CPU          S/CPU         CPULeft
65710000   2361.0104      79.502237     -39026011       1.84283        7030.6859     -39018980       675.43624      675.43624      675.43624      1662.2819      2337.7181      1662.2819      2337.7181      1662.2819      2337.7181      3.0814355e+08  0.25           17185000       0              0              0              0
Averages over the last 751 of 1501 rows, steps 65860000 to 66010000:
Temp Press PotEng Density KinEng TotEng Lx Ly Lz Xlo Xhi Ylo Yhi Zlo Zhi Volume Dt
301.226 0.669027 -3.9117e+07 1.84537 897 -3.91161e+07 675.127 675.127 675.127 1662.44 2337.56 1662.44 2337.56 1662.44 2337.56 3.0772e+08 0.25
Loop time of 25.1891 on 4 procs for 300000 steps with 1000 atoms

# run_style
run_style verlet

# write restart
write_restart ./pgnpmf/4060/equpmf65.res
System init for write_restart ...
Generated 0 of 1 mixed pair_coeff terms from geometric mixing rule
