LAMMPS (23 Jun 2022 - Update 1)
# Read restart
read_restart ./pgnpmf/4060/equpmf62.res
Reading restart file ...
  restart file = 23 Jun 2022, LAMMPS = 23 Jun 2022
  restoring atom style atomic from restart
  orthogonal box = (1662.5722 1662.5722 1662.5722) to (2337.4278 2337.4278 2337.4278)
  restoring pair style table from restart
  1000 atoms
  read_restart CPU = 0.004 seconds

# Settings

pair_style table spline 9941

pair_coeff 1 1 ./pgnpmf/N20.txt DE_GNP 75.6
pair_coeff 2 2 ./pgnpmf/N100.txt DE_GNP 115.92
pair_coeff 1 2 ./pgnpmf/mixed_potential.txt DE_GNP 95.66

#Neigh_list Calc Frequency

neigh_modify delay 0 every 1 check yes

# Saving Frequency (50 frames)

variable ts_save equal 5000

# Dump
#dump_modify 1 first no sort id
dump 2 all cfg 50000 ./pgnpmf/4060/equilibration/trajectory/dumpgen.tens_*.cfg mass type xs ys zs fx fy fz
dump_modify 2 element N20 N100

# thermo_style
thermo_style custom step temp press pe density ke etotal lx ly lz xlo xhi ylo yhi zlo zhi vol dt time cpu tpcpu spcpu cpuremain

# run info
timestep 0.25
thermo 200

# fix

fix 1 all momentum 1000 linear 1 1 1 angular
variable T equal 300
fix 2 all nvt temp 300 370000 100.0

run 100000
Generated 0 of 1 mixed pair_coeff terms from geometric mixing rule
Unused restart file global fix info:
  fix style: npt, fix ID: 5
  update every 1 steps, delay 0 steps, check yes
Step          Temp          Press          PotEng        Density         KinEng         TotEng           Lx             Ly             Lz            Xlo            Xhi            Ylo            Yhi            Zlo            Zhi           Volume           Dt            Time           CPU           T/CPU          S/CPU         CPULeft
63010000   310.52987     -2.8492504     -39299746       1.8475907      924.70493     -39298821       674.8556       674.8556       674.8556       1662.5722      2337.4278      1662.5722      2337.4278      1662.5722      2337.4278      3.0734954e+08  0.25           16510000       0              0              0              0
Averages over the last 251 of 501 rows, steps 63060000 to 63110000:
Temp Press PotEng Density KinEng TotEng Lx Ly Lz Xlo Xhi Ylo Yhi Zlo Zhi Volume Dt
277045 2111.85 -3.85003e+07 1.84759 824992 -3.76753e+07 674.856 674.856 674.856 1662.57 2337.43 1662.57 2337.43 1662.57 2337.43 3.0735e+08 0.25
Loop time of 6.24915 on 4 procs for 100000 steps with 1000 atoms

unfix 2

fix 3 all nvt temp 370000 370000 $(100.0*dt) #iso 1.0 1.0 $(1000.0*dt)
fix 3 all nvt temp 370000 370000 25

run 500000
Generated 0 of 1 mixed pair_coeff terms from geometric mixing rule
Step          Temp          Press          PotEng        Density         KinEng         TotEng           Lx             Ly             Lz            Xlo            Xhi            Ylo            Yhi            Zlo            Zhi           Volume           Dt            Time           CPU           T/CPU          S/CPU         CPULeft
63110000   366471.48      3191.2209     -38069579       1.8475907      1091289.5     -36978290       674.8556       674.8556       674.8556       1662.5722      2337.4278      1662.5722      2337.4278      1662.5722      2337.4278      3.0734954e+08  0.25           16535000       0              0              0              0
Averages over the last 1251 of 2501 rows, steps 63360000 to 63610000:
Temp Press PotEng Density KinEng TotEng Lx Ly Lz Xlo Xhi Ylo Yhi Zlo Zhi Volume Dt
369902 2587.27 -3.81274e+07 1.84759 1.1015e+06 -3.70259e+07 674.856 674.856 674.856 1662.57 2337.43 1662.57 2337.43 1662.57 2337.43 3.0735e+08 0.25
Loop time of 31.4832 on 4 procs for 500000 steps with 1000 atoms

unfix 3

fix 4 all nvt temp 370000 300 100.0

run 100000
Generated 0 of 1 mixed pair_coeff terms from geometric mixing rule
Step          Temp          Press          PotEng        Density         KinEng         TotEng           Lx             Ly             Lz            Xlo            Xhi            Ylo            Yhi            Zlo            Zhi           Volume           Dt            Time           CPU           T/CPU          S/CPU         CPULeft
63610000   367807.81      2491.7131     -38093178       1.8475907      1095268.9     -36997909       674.8556       674.8556       674.8556       1662.5722      2337.4278      1662.5722      2337.4278      1662.5722      2337.4278      3.0734954e+08  0.25           16660000       0              0              0              0
Averages over the last 251 of 501 rows, steps 63660000 to 63710000:
Temp Press PotEng Density KinEng TotEng Lx Ly Lz Xlo Xhi Ylo Yhi Zlo Zhi Volume Dt
93984.3 848.145 -3.89504e+07 1.84759 279869 -3.86705e+07 674.856 674.856 674.856 1662.57 2337.43 1662.57 2337.43 1662.57 2337.43 3.0735e+08 0.25
Loop time of 6.26517 on 4 procs for 100000 steps with 1000 atoms

unfix 4

fix 5 all npt temp 300 300 $(100.0*dt) iso 1.0 1.0 $(1000.0*dt)
fix 5 all npt temp 300 300 25 iso 1.0 1.0 $(1000.0*dt)
fix 5 all npt temp 300 300 25 iso 1.0 1.0 250

run 300000
Generated 0 of 1 mixed pair_coeff terms from geometric mixing rule
Step          Temp          Press          PotEng        Density         KinEng         TotEng           Lx             Ly             Lz            Xlo            Xhi            Ylo            Yhi            Zlo            Zhi           Volume           Dt            Time           CPU           T/CPU          S/CPU         CPULeft
63710000   2379.3841      270.22743     -39227431       1.8475907      7085.3995     -39220345       674.8556       674.8556       674.8556       1662.5722      2337.4278      1662.5722      2337.4278      1662.5722      2337.4278      3.0734954e+08  0.25           16685000       0              0              0              0
Averages over the last 751 of 1501 rows, steps 63860000 to 64010000:
Temp Press PotEng Density KinEng TotEng Lx Ly Lz Xlo Xhi Ylo Yhi Zlo Zhi Volume Dt
302.074 0.676097 -3.93576e+07 1.84477 899.524 -3.93567e+07 675.199 675.199 675.199 1662.4 2337.6 1662.4 2337.6 1662.4 2337.6 3.0782e+08 0.25
Loop time of 22.0745 on 4 procs for 300000 steps with 1000 atoms

# run_style
run_style verlet

# write restart
write_restart ./pgnpmf/4060/equpmf63.res
System init for write_restart ...
Generated 0 of 1 mixed pair_coeff terms from geometric mixing rule
