LAMMPS (23 Jun 2022 - Update 1)
# Read restart
read_restart ./pgnpmf/4060/equpmf54.res
Reading restart file ...
  restart file = 23 Jun 2022, LAMMPS = 23 Jun 2022
  restoring atom style atomic from restart
  orthogonal box = (1662.252 1662.252 1662.252) to (2337.748 2337.748 2337.748)
  restoring pair style table from restart
  1000 atoms
  read_restart CPU = 0.011 seconds

# Settings

pair_style table spline 9941

pair_coeff 1 1 ./pgnpmf/N20.txt DE_GNP 75.6
pair_coeff 2 2 ./pgnpmf/N100.txt DE_GNP 115.92
pair_coeff 1 2 ./pgnpmf/mixed_potential.txt DE_GNP 95.66

#Neigh_list Calc Frequency

neigh_modify delay 0 every 1 check yes

# Saving Frequency (50 frames)

variable ts_save equal 5000

# Dump
#dump_modify 1 first no sort id
dump 2 all cfg 50000 ./pgnpmf/4060/equilibration/trajectory/dumpgen.tens_*.cfg mass type xs ys zs fx fy fz
dump_modify 2 element N20 N100

# thermo_style
thermo_style custom step temp press pe density ke etotal lx ly lz xlo xhi ylo yhi zlo zhi vol dt time cpu tpcpu spcpu cpuremain

# run info
timestep 0.25
thermo 200

# fix

fix 1 all momentum 1000 linear 1 1 1 angular
variable T equal 300
fix 2 all nvt temp 300 370000 100.0

run 100000
Generated 0 of 1 mixed pair_coeff terms from geometric mixing rule
Unused restart file global fix info:
  fix style: npt, fix ID: 5
  update every 1 steps, delay 0 steps, check yes
Step          Temp          Press          PotEng        Density         KinEng         TotEng           Lx             Ly             Lz            Xlo            Xhi            Ylo            Yhi            Zlo            Zhi           Volume           Dt            Time           CPU           T/CPU          S/CPU         CPULeft
55010000   308.04433     -0.33655001    -38923167       1.8423409      917.30341     -38922249       675.496        675.496        675.496        1662.252       2337.748       1662.252       2337.748       1662.252       2337.748       3.0822534e+08  0.25           14510000       0              0              0              0
Averages over the last 251 of 501 rows, steps 55060000 to 55110000:
Temp Press PotEng Density KinEng TotEng Lx Ly Lz Xlo Xhi Ylo Yhi Zlo Zhi Volume Dt
277336 2019.19 -3.84149e+07 1.84234 825861 -3.7589e+07 675.496 675.496 675.496 1662.25 2337.75 1662.25 2337.75 1662.25 2337.75 3.08225e+08 0.25
Loop time of 7.41573 on 4 procs for 100000 steps with 1000 atoms

unfix 2

fix 3 all nvt temp 370000 370000 $(100.0*dt) #iso 1.0 1.0 $(1000.0*dt)
fix 3 all nvt temp 370000 370000 25

run 500000
Generated 0 of 1 mixed pair_coeff terms from geometric mixing rule
Step          Temp          Press          PotEng        Density         KinEng         TotEng           Lx             Ly             Lz            Xlo            Xhi            Ylo            Yhi            Zlo            Zhi           Volume           Dt            Time           CPU           T/CPU          S/CPU         CPULeft
55110000   364855         2819.65       -38164066       1.8423409      1086475.9     -37077590       675.496        675.496        675.496        1662.252       2337.748       1662.252       2337.748       1662.252       2337.748       3.0822534e+08  0.25           14535000       0              0              0              0
Averages over the last 1251 of 2501 rows, steps 55360000 to 55610000:
Temp Press PotEng Density KinEng TotEng Lx Ly Lz Xlo Xhi Ylo Yhi Zlo Zhi Volume Dt
369919 2518.76 -3.80915e+07 1.84234 1.10155e+06 -3.699e+07 675.496 675.496 675.496 1662.25 2337.75 1662.25 2337.75 1662.25 2337.75 3.08225e+08 0.25
Loop time of 37.0617 on 4 procs for 500000 steps with 1000 atoms

unfix 3

fix 4 all nvt temp 370000 300 100.0

run 100000
Generated 0 of 1 mixed pair_coeff terms from geometric mixing rule
Step          Temp          Press          PotEng        Density         KinEng         TotEng           Lx             Ly             Lz            Xlo            Xhi            Ylo            Yhi            Zlo            Zhi           Volume           Dt            Time           CPU           T/CPU          S/CPU         CPULeft
55610000   369780.85      2627.478      -38001833       1.8423409      1101144.2     -36900689       675.496        675.496        675.496        1662.252       2337.748       1662.252       2337.748       1662.252       2337.748       3.0822534e+08  0.25           14660000       0              0              0              0
Averages over the last 251 of 501 rows, steps 55660000 to 55710000:
Temp Press PotEng Density KinEng TotEng Lx Ly Lz Xlo Xhi Ylo Yhi Zlo Zhi Volume Dt
93574.1 807.091 -3.87322e+07 1.84234 278648 -3.84536e+07 675.496 675.496 675.496 1662.25 2337.75 1662.25 2337.75 1662.25 2337.75 3.08225e+08 0.25
Loop time of 7.28926 on 4 procs for 100000 steps with 1000 atoms

unfix 4

fix 5 all npt temp 300 300 $(100.0*dt) iso 1.0 1.0 $(1000.0*dt)
fix 5 all npt temp 300 300 25 iso 1.0 1.0 $(1000.0*dt)
fix 5 all npt temp 300 300 25 iso 1.0 1.0 250

run 300000
Generated 0 of 1 mixed pair_coeff terms from geometric mixing rule
Step          Temp          Press          PotEng        Density         KinEng         TotEng           Lx             Ly             Lz            Xlo            Xhi            Ylo            Yhi            Zlo            Zhi           Volume           Dt            Time           CPU           T/CPU          S/CPU         CPULeft
55710000   2377.3585      226.31687     -38966943       1.8423409      7079.3678     -38959864       675.496        675.496        675.496        1662.252       2337.748       1662.252       2337.748       1662.252       2337.748       3.0822534e+08  0.25           14685000       0              0              0              0
Averages over the last 751 of 1501 rows, steps 55860000 to 56010000:
Temp Press PotEng Density KinEng TotEng Lx Ly Lz Xlo Xhi Ylo Yhi Zlo Zhi Volume Dt
301.01 1.13583 -3.91046e+07 1.84102 896.355 -3.91037e+07 675.657 675.657 675.657 1662.17 2337.83 1662.17 2337.83 1662.17 2337.83 3.08446e+08 0.25
Loop time of 25.7306 on 4 procs for 300000 steps with 1000 atoms

# run_style
run_style verlet

# write restart
write_restart ./pgnpmf/4060/equpmf55.res
System init for write_restart ...
Generated 0 of 1 mixed pair_coeff terms from geometric mixing rule
