LAMMPS (23 Jun 2022 - Update 1)
# Read restart
read_restart ./pgnpmf/4060/equpmf31.res
Reading restart file ...
  restart file = 23 Jun 2022, LAMMPS = 23 Jun 2022
  restoring atom style atomic from restart
  orthogonal box = (1654.3596 1654.3596 1654.3596) to (2345.6404 2345.6404 2345.6404)
  restoring pair style table from restart
  1000 atoms
  read_restart CPU = 0.003 seconds

# Settings

pair_style table spline 9941

pair_coeff 1 1 ./pgnpmf/N20.txt DE_GNP 75.6
pair_coeff 2 2 ./pgnpmf/N100.txt DE_GNP 115.92
pair_coeff 1 2 ./pgnpmf/mixed_potential.txt DE_GNP 95.66

#Neigh_list Calc Frequency

neigh_modify delay 0 every 1 check yes

# Saving Frequency (50 frames)

variable ts_save equal 5000

# Dump
#dump_modify 1 first no sort id
dump 2 all cfg 50000 ./pgnpmf/4060/equilibration/trajectory/dumpgen.tens_*.cfg mass type xs ys zs fx fy fz
dump_modify 2 element N20 N100

# thermo_style
thermo_style custom step temp press pe density ke etotal lx ly lz xlo xhi ylo yhi zlo zhi vol dt time cpu tpcpu spcpu cpuremain

# run info
timestep 0.25
thermo 200

# fix

fix 1 all momentum 1000 linear 1 1 1 angular
variable T equal 300
fix 2 all nvt temp 300 370000 100.0

run 100000
Generated 0 of 1 mixed pair_coeff terms from geometric mixing rule
Unused restart file global fix info:
  fix style: npt, fix ID: 5
  update every 1 steps, delay 0 steps, check yes
Step          Temp          Press          PotEng        Density         KinEng         TotEng           Lx             Ly             Lz            Xlo            Xhi            Ylo            Yhi            Zlo            Zhi           Volume           Dt            Time           CPU           T/CPU          S/CPU         CPULeft
32010000   307.38959     -3.6804356     -37296726       1.7189958      915.35371     -37295811       691.28082      691.28082      691.28082      1654.3596      2345.6404      1654.3596      2345.6404      1654.3596      2345.6404      3.3034179e+08  0.25           8760000        0              0              0              0
Averages over the last 251 of 501 rows, steps 32060000 to 32110000:
Temp Press PotEng Density KinEng TotEng Lx Ly Lz Xlo Xhi Ylo Yhi Zlo Zhi Volume Dt
277561 801.76 -3.70308e+07 1.719 826530 -3.62043e+07 691.281 691.281 691.281 1654.36 2345.64 1654.36 2345.64 1654.36 2345.64 3.30342e+08 0.25
Loop time of 6.54099 on 4 procs for 100000 steps with 1000 atoms

unfix 2

fix 3 all nvt temp 370000 370000 $(100.0*dt) #iso 1.0 1.0 $(1000.0*dt)
fix 3 all nvt temp 370000 370000 25

run 500000
Generated 0 of 1 mixed pair_coeff terms from geometric mixing rule
Step          Temp          Press          PotEng        Density         KinEng         TotEng           Lx             Ly             Lz            Xlo            Xhi            Ylo            Yhi            Zlo            Zhi           Volume           Dt            Time           CPU           T/CPU          S/CPU         CPULeft
32110000   376833.48      1347.7166     -36713092       1.7189958      1122145.8     -35590946       691.28082      691.28082      691.28082      1654.3596      2345.6404      1654.3596      2345.6404      1654.3596      2345.6404      3.3034179e+08  0.25           8785000        0              0              0              0
Averages over the last 1251 of 2501 rows, steps 32360000 to 32610000:
Temp Press PotEng Density KinEng TotEng Lx Ly Lz Xlo Xhi Ylo Yhi Zlo Zhi Volume Dt
369926 1068.92 -3.66444e+07 1.719 1.10158e+06 -3.55428e+07 691.281 691.281 691.281 1654.36 2345.64 1654.36 2345.64 1654.36 2345.64 3.30342e+08 0.25
Loop time of 31.4947 on 4 procs for 500000 steps with 1000 atoms

unfix 3

fix 4 all nvt temp 370000 300 100.0

run 100000
Generated 0 of 1 mixed pair_coeff terms from geometric mixing rule
Step          Temp          Press          PotEng        Density         KinEng         TotEng           Lx             Ly             Lz            Xlo            Xhi            Ylo            Yhi            Zlo            Zhi           Volume           Dt            Time           CPU           T/CPU          S/CPU         CPULeft
32610000   371458.62      1043.2403     -36714556       1.7189958      1106140.3     -35608415       691.28082      691.28082      691.28082      1654.3596      2345.6404      1654.3596      2345.6404      1654.3596      2345.6404      3.3034179e+08  0.25           8910000        0              0              0              0
Averages over the last 251 of 501 rows, steps 32660000 to 32710000:
Temp Press PotEng Density KinEng TotEng Lx Ly Lz Xlo Xhi Ylo Yhi Zlo Zhi Volume Dt
93586.2 -540.006 -3.72856e+07 1.719 278684 -3.70069e+07 691.281 691.281 691.281 1654.36 2345.64 1654.36 2345.64 1654.36 2345.64 3.30342e+08 0.25
Loop time of 6.03529 on 4 procs for 100000 steps with 1000 atoms

unfix 4

fix 5 all npt temp 300 300 $(100.0*dt) iso 1.0 1.0 $(1000.0*dt)
fix 5 all npt temp 300 300 25 iso 1.0 1.0 $(1000.0*dt)
fix 5 all npt temp 300 300 25 iso 1.0 1.0 250

run 300000
Generated 0 of 1 mixed pair_coeff terms from geometric mixing rule
Step          Temp          Press          PotEng        Density         KinEng         TotEng           Lx             Ly             Lz            Xlo            Xhi            Ylo            Yhi            Zlo            Zhi           Volume           Dt            Time           CPU           T/CPU          S/CPU         CPULeft
32710000   2360.4291     -1077.6828     -37433516       1.7189958      7028.9549     -37426487       691.28082      691.28082      691.28082      1654.3596      2345.6404      1654.3596      2345.6404      1654.3596      2345.6404      3.3034179e+08  0.25           8935000        0              0              0              0
Averages over the last 751 of 1501 rows, steps 32860000 to 33010000:
Temp Press PotEng Density KinEng TotEng Lx Ly Lz Xlo Xhi Ylo Yhi Zlo Zhi Volume Dt
306.468 0.8864 -3.81531e+07 1.77851 912.611 -3.81521e+07 683.483 683.483 683.483 1658.26 2341.74 1658.26 2341.74 1658.26 2341.74 3.19288e+08 0.25
Loop time of 21.6183 on 4 procs for 300000 steps with 1000 atoms

# run_style
run_style verlet

# write restart
write_restart ./pgnpmf/4060/equpmf32.res
System init for write_restart ...
Generated 0 of 1 mixed pair_coeff terms from geometric mixing rule
