LAMMPS (23 Jun 2022 - Update 1)
# Read restart
read_restart ./pgnpmf/4060/equpmf30.res
Reading restart file ...
  restart file = 23 Jun 2022, LAMMPS = 23 Jun 2022
  restoring atom style atomic from restart
  orthogonal box = (1647.5379 1647.5379 1647.5379) to (2352.4621 2352.4621 2352.4621)
  restoring pair style table from restart
  1000 atoms
  read_restart CPU = 0.007 seconds

# Settings

pair_style table spline 9941

pair_coeff 1 1 ./pgnpmf/N20.txt DE_GNP 75.6
pair_coeff 2 2 ./pgnpmf/N100.txt DE_GNP 115.92
pair_coeff 1 2 ./pgnpmf/mixed_potential.txt DE_GNP 95.66

#Neigh_list Calc Frequency

neigh_modify delay 0 every 1 check yes

# Saving Frequency (50 frames)

variable ts_save equal 5000

# Dump
#dump_modify 1 first no sort id
dump 2 all cfg 50000 ./pgnpmf/4060/equilibration/trajectory/dumpgen.tens_*.cfg mass type xs ys zs fx fy fz
dump_modify 2 element N20 N100

# thermo_style
thermo_style custom step temp press pe density ke etotal lx ly lz xlo xhi ylo yhi zlo zhi vol dt time cpu tpcpu spcpu cpuremain

# run info
timestep 0.25
thermo 200

# fix

fix 1 all momentum 1000 linear 1 1 1 angular
variable T equal 300
fix 2 all nvt temp 300 370000 100.0

run 100000
Generated 0 of 1 mixed pair_coeff terms from geometric mixing rule
Unused restart file global fix info:
  fix style: npt, fix ID: 5
  update every 1 steps, delay 0 steps, check yes
Step          Temp          Press          PotEng        Density         KinEng         TotEng           Lx             Ly             Lz            Xlo            Xhi            Ylo            Yhi            Zlo            Zhi           Volume           Dt            Time           CPU           T/CPU          S/CPU         CPULeft
31010000   309.6142       0.16345219    -36324456       1.6211046      921.97823     -36323534       704.92423      704.92423      704.92423      1647.5379      2352.4621      1647.5379      2352.4621      1647.5379      2352.4621      3.5028966e+08  0.25           8510000        0              0              0              0
Averages over the last 251 of 501 rows, steps 31060000 to 31110000:
Temp Press PotEng Density KinEng TotEng Lx Ly Lz Xlo Xhi Ylo Yhi Zlo Zhi Volume Dt
277090 403.193 -3.60223e+07 1.6211 825128 -3.51972e+07 704.924 704.924 704.924 1647.54 2352.46 1647.54 2352.46 1647.54 2352.46 3.5029e+08 0.25
Loop time of 6.86694 on 4 procs for 100000 steps with 1000 atoms

unfix 2

fix 3 all nvt temp 370000 370000 $(100.0*dt) #iso 1.0 1.0 $(1000.0*dt)
fix 3 all nvt temp 370000 370000 25

run 500000
Generated 0 of 1 mixed pair_coeff terms from geometric mixing rule
Step          Temp          Press          PotEng        Density         KinEng         TotEng           Lx             Ly             Lz            Xlo            Xhi            Ylo            Yhi            Zlo            Zhi           Volume           Dt            Time           CPU           T/CPU          S/CPU         CPULeft
31110000   378620.56      878.06096     -35878725       1.6211046      1127467.4     -34751257       704.92423      704.92423      704.92423      1647.5379      2352.4621      1647.5379      2352.4621      1647.5379      2352.4621      3.5028966e+08  0.25           8535000        0              0              0              0
Averages over the last 1251 of 2501 rows, steps 31360000 to 31610000:
Temp Press PotEng Density KinEng TotEng Lx Ly Lz Xlo Xhi Ylo Yhi Zlo Zhi Volume Dt
369944 370.951 -3.53675e+07 1.6211 1.10163e+06 -3.42659e+07 704.924 704.924 704.924 1647.54 2352.46 1647.54 2352.46 1647.54 2352.46 3.5029e+08 0.25
Loop time of 35.0579 on 4 procs for 500000 steps with 1000 atoms

unfix 3

fix 4 all nvt temp 370000 300 100.0

run 100000
Generated 0 of 1 mixed pair_coeff terms from geometric mixing rule
Step          Temp          Press          PotEng        Density         KinEng         TotEng           Lx             Ly             Lz            Xlo            Xhi            Ylo            Yhi            Zlo            Zhi           Volume           Dt            Time           CPU           T/CPU          S/CPU         CPULeft
31610000   378115.18      364.432       -35138036       1.6211046      1125962.4     -34012074       704.92423      704.92423      704.92423      1647.5379      2352.4621      1647.5379      2352.4621      1647.5379      2352.4621      3.5028966e+08  0.25           8660000        0              0              0              0
Averages over the last 251 of 501 rows, steps 31660000 to 31710000:
Temp Press PotEng Density KinEng TotEng Lx Ly Lz Xlo Xhi Ylo Yhi Zlo Zhi Volume Dt
93688.7 -949.012 -3.58926e+07 1.6211 278989 -3.56136e+07 704.924 704.924 704.924 1647.54 2352.46 1647.54 2352.46 1647.54 2352.46 3.5029e+08 0.25
Loop time of 6.92768 on 4 procs for 100000 steps with 1000 atoms

unfix 4

fix 5 all npt temp 300 300 $(100.0*dt) iso 1.0 1.0 $(1000.0*dt)
fix 5 all npt temp 300 300 25 iso 1.0 1.0 $(1000.0*dt)
fix 5 all npt temp 300 300 25 iso 1.0 1.0 250

run 300000
Generated 0 of 1 mixed pair_coeff terms from geometric mixing rule
Step          Temp          Press          PotEng        Density         KinEng         TotEng           Lx             Ly             Lz            Xlo            Xhi            Ylo            Yhi            Zlo            Zhi           Volume           Dt            Time           CPU           T/CPU          S/CPU         CPULeft
31710000   2353.1867     -1407.1167     -36104518       1.6211046      7007.3882     -36097511       704.92423      704.92423      704.92423      1647.5379      2352.4621      1647.5379      2352.4621      1647.5379      2352.4621      3.5028966e+08  0.25           8685000        0              0              0              0
Averages over the last 751 of 1501 rows, steps 31860000 to 32010000:
Temp Press PotEng Density KinEng TotEng Lx Ly Lz Xlo Xhi Ylo Yhi Zlo Zhi Volume Dt
309.954 1.13536 -3.71937e+07 1.71387 922.99 -3.71927e+07 691.969 691.969 691.969 1654.02 2345.98 1654.02 2345.98 1654.02 2345.98 3.3133e+08 0.25
Loop time of 24.5489 on 4 procs for 300000 steps with 1000 atoms

# run_style
run_style verlet

# write restart
write_restart ./pgnpmf/4060/equpmf31.res
System init for write_restart ...
Generated 0 of 1 mixed pair_coeff terms from geometric mixing rule
