LAMMPS (23 Jun 2022 - Update 1)
# Read restart
read_restart ./pgnpmf/4060/equpmf56.res
Reading restart file ...
  restart file = 23 Jun 2022, LAMMPS = 23 Jun 2022
  restoring atom style atomic from restart
  orthogonal box = (1662.325 1662.325 1662.325) to (2337.675 2337.675 2337.675)
  restoring pair style table from restart
  1000 atoms
  read_restart CPU = 0.005 seconds

# Settings

pair_style table spline 9941

pair_coeff 1 1 ./pgnpmf/N20.txt DE_GNP 75.6
pair_coeff 2 2 ./pgnpmf/N100.txt DE_GNP 115.92
pair_coeff 1 2 ./pgnpmf/mixed_potential.txt DE_GNP 95.66

#Neigh_list Calc Frequency

neigh_modify delay 0 every 1 check yes

# Saving Frequency (50 frames)

variable ts_save equal 5000

# Dump
#dump_modify 1 first no sort id
dump 2 all cfg 50000 ./pgnpmf/4060/equilibration/trajectory/dumpgen.tens_*.cfg mass type xs ys zs fx fy fz
dump_modify 2 element N20 N100

# thermo_style
thermo_style custom step temp press pe density ke etotal lx ly lz xlo xhi ylo yhi zlo zhi vol dt time cpu tpcpu spcpu cpuremain

# run info
timestep 0.25
thermo 200

# fix

fix 1 all momentum 1000 linear 1 1 1 angular
variable T equal 300
fix 2 all nvt temp 300 370000 100.0

run 100000
Generated 0 of 1 mixed pair_coeff terms from geometric mixing rule
Unused restart file global fix info:
  fix style: npt, fix ID: 5
  update every 1 steps, delay 0 steps, check yes
Step          Temp          Press          PotEng        Density         KinEng         TotEng           Lx             Ly             Lz            Xlo            Xhi            Ylo            Yhi            Zlo            Zhi           Volume           Dt            Time           CPU           T/CPU          S/CPU         CPULeft
57010000   298.37956      1.1937754     -39130589       1.8435366      888.52337     -39129701       675.34992      675.34992      675.34992      1662.325       2337.675       1662.325       2337.675       1662.325       2337.675       3.0802542e+08  0.25           15010000       0              0              0              0
Averages over the last 251 of 501 rows, steps 57060000 to 57110000:
Temp Press PotEng Density KinEng TotEng Lx Ly Lz Xlo Xhi Ylo Yhi Zlo Zhi Volume Dt
277161 2064.24 -3.84792e+07 1.84354 825338 -3.76539e+07 675.35 675.35 675.35 1662.33 2337.68 1662.33 2337.68 1662.33 2337.68 3.08025e+08 0.25
Loop time of 7.53938 on 4 procs for 100000 steps with 1000 atoms

unfix 2

fix 3 all nvt temp 370000 370000 $(100.0*dt) #iso 1.0 1.0 $(1000.0*dt)
fix 3 all nvt temp 370000 370000 25

run 500000
Generated 0 of 1 mixed pair_coeff terms from geometric mixing rule
Step          Temp          Press          PotEng        Density         KinEng         TotEng           Lx             Ly             Lz            Xlo            Xhi            Ylo            Yhi            Zlo            Zhi           Volume           Dt            Time           CPU           T/CPU          S/CPU         CPULeft
57110000   360309.73      2840.2327     -38116886       1.8435366      1072940.9     -37043945       675.34992      675.34992      675.34992      1662.325       2337.675       1662.325       2337.675       1662.325       2337.675       3.0802542e+08  0.25           15035000       0              0              0              0
Averages over the last 1251 of 2501 rows, steps 57360000 to 57610000:
Temp Press PotEng Density KinEng TotEng Lx Ly Lz Xlo Xhi Ylo Yhi Zlo Zhi Volume Dt
369929 2439.71 -3.80862e+07 1.84354 1.10159e+06 -3.69846e+07 675.35 675.35 675.35 1662.33 2337.68 1662.33 2337.68 1662.33 2337.68 3.08025e+08 0.25
Loop time of 37.7711 on 4 procs for 500000 steps with 1000 atoms

unfix 3

fix 4 all nvt temp 370000 300 100.0

run 100000
Generated 0 of 1 mixed pair_coeff terms from geometric mixing rule
Step          Temp          Press          PotEng        Density         KinEng         TotEng           Lx             Ly             Lz            Xlo            Xhi            Ylo            Yhi            Zlo            Zhi           Volume           Dt            Time           CPU           T/CPU          S/CPU         CPULeft
57610000   368237.53      2348.5291     -38295145       1.8435366      1096548.5     -37198596       675.34992      675.34992      675.34992      1662.325       2337.675       1662.325       2337.675       1662.325       2337.675       3.0802542e+08  0.25           15160000       0              0              0              0
Averages over the last 251 of 501 rows, steps 57660000 to 57710000:
Temp Press PotEng Density KinEng TotEng Lx Ly Lz Xlo Xhi Ylo Yhi Zlo Zhi Volume Dt
93780.9 658.338 -3.89851e+07 1.84354 279263 -3.87058e+07 675.35 675.35 675.35 1662.33 2337.68 1662.33 2337.68 1662.33 2337.68 3.08025e+08 0.25
Loop time of 7.50455 on 4 procs for 100000 steps with 1000 atoms

unfix 4

fix 5 all npt temp 300 300 $(100.0*dt) iso 1.0 1.0 $(1000.0*dt)
fix 5 all npt temp 300 300 25 iso 1.0 1.0 $(1000.0*dt)
fix 5 all npt temp 300 300 25 iso 1.0 1.0 250

run 300000
Generated 0 of 1 mixed pair_coeff terms from geometric mixing rule
Step          Temp          Press          PotEng        Density         KinEng         TotEng           Lx             Ly             Lz            Xlo            Xhi            Ylo            Yhi            Zlo            Zhi           Volume           Dt            Time           CPU           T/CPU          S/CPU         CPULeft
57710000   2375.5708      112.21337     -39205778       1.8435366      7074.0443     -39198704       675.34992      675.34992      675.34992      1662.325       2337.675       1662.325       2337.675       1662.325       2337.675       3.0802542e+08  0.25           15185000       0              0              0              0
Averages over the last 751 of 1501 rows, steps 57860000 to 58010000:
Temp Press PotEng Density KinEng TotEng Lx Ly Lz Xlo Xhi Ylo Yhi Zlo Zhi Volume Dt
300.739 0.959736 -3.9354e+07 1.84495 895.549 -3.93531e+07 675.177 675.177 675.177 1662.41 2337.59 1662.41 2337.59 1662.41 2337.59 3.07789e+08 0.25
Loop time of 26.4604 on 4 procs for 300000 steps with 1000 atoms

# run_style
run_style verlet

# write restart
write_restart ./pgnpmf/4060/equpmf57.res
System init for write_restart ...
Generated 0 of 1 mixed pair_coeff terms from geometric mixing rule
