LAMMPS (23 Jun 2022 - Update 1)
# Read restart
read_restart ./pgnpmf/300700/equpmf23.res
Reading restart file ...
  restart file = 23 Jun 2022, LAMMPS = 23 Jun 2022
  restoring atom style atomic from restart
  orthogonal box = (1878.2765 1878.2765 1878.2765) to (3121.7235 3121.7235 3121.7235)
  restoring pair style table from restart
  1000 atoms
  read_restart CPU = 0.009 seconds

# Settings

pair_style table spline 9941

pair_coeff 1 1 ./pgnpmf/N20.txt DE_GNP 75.6
pair_coeff 2 2 ./pgnpmf/N100.txt DE_GNP 115.92
pair_coeff 1 2 ./pgnpmf/mixed_potential.txt DE_GNP 95.66

#Neigh_list Calc Frequency

neigh_modify delay 0 every 1 check yes

# Saving Frequency (50 frames)

variable ts_save equal 5000

# Dump
dump 1 all custom 5000 ./pgnpmf/300700/equilibration/trajectory/trajectory_1_1.equ.custom type x y z ix iy iz
dump_modify 1 first no sort id
#dump 2 all cfg 50000 ./equilibration/trajectory/ovito/dumpgen.tens_*.cfg mass type xs ys zs fx fy fz

# thermo_style
thermo_style custom step temp press pe density ke etotal lx ly lz xlo xhi ylo yhi zlo zhi vol dt time cpu tpcpu spcpu cpuremain

# run info
timestep 0.5
thermo 200

# fix

fix 1 all momentum 1000 linear 1 1 1 angular
variable T equal 300
fix 2 all nvt temp 300 370000 100.0

run 100000
Generated 0 of 1 mixed pair_coeff terms from geometric mixing rule
Unused restart file global fix info:
  fix style: npt, fix ID: 5
  update every 1 steps, delay 0 steps, check yes
Step          Temp          Press          PotEng        Density         KinEng         TotEng           Lx             Ly             Lz            Xlo            Xhi            Ylo            Yhi            Zlo            Zhi           Volume           Dt            Time           CPU           T/CPU          S/CPU         CPULeft
16105000   305.42702      1.624931      -27789824       0.31265479     909.5095      -27788914       1243.4469      1243.4469      1243.4469      1878.2765      3121.7235      1878.2765      3121.7235      1878.2765      3121.7235      1.9225682e+09  0.5            8055000        0              0              0              0
Averages over the last 251 of 501 rows, steps 16155000 to 16205000:
Temp Press PotEng Density KinEng TotEng Lx Ly Lz Xlo Xhi Ylo Yhi Zlo Zhi Volume Dt
277352 6.69847 -2.72615e+07 0.312655 825908 -2.64356e+07 1243.45 1243.45 1243.45 1878.28 3121.72 1878.28 3121.72 1878.28 3121.72 1.92257e+09 0.5
Loop time of 9.93697 on 1 procs for 100000 steps with 1000 atoms

unfix 2

fix 3 all nvt temp 370000 370000 $(100.0*dt) #iso 1.0 1.0 $(1000.0*dt)
fix 3 all nvt temp 370000 370000 50

run 200000
Generated 0 of 1 mixed pair_coeff terms from geometric mixing rule
Step          Temp          Press          PotEng        Density         KinEng         TotEng           Lx             Ly             Lz            Xlo            Xhi            Ylo            Yhi            Zlo            Zhi           Volume           Dt            Time           CPU           T/CPU          S/CPU         CPULeft
16205000   361687.69      14.054334     -26992787       0.31265479     1077044.2     -25915743       1243.4469      1243.4469      1243.4469      1878.2765      3121.7235      1878.2765      3121.7235      1878.2765      3121.7235      1.9225682e+09  0.5            8105000        0              0              0              0
Averages over the last 501 of 1001 rows, steps 16305000 to 16405000:
Temp Press PotEng Density KinEng TotEng Lx Ly Lz Xlo Xhi Ylo Yhi Zlo Zhi Volume Dt
370116 13.5894 -2.63575e+07 0.312655 1.10214e+06 -2.52554e+07 1243.45 1243.45 1243.45 1878.28 3121.72 1878.28 3121.72 1878.28 3121.72 1.92257e+09 0.5
Loop time of 19.9037 on 1 procs for 200000 steps with 1000 atoms

unfix 3

fix 4 all nvt temp 370000 300 100.0

run 100000
Generated 0 of 1 mixed pair_coeff terms from geometric mixing rule
Step          Temp          Press          PotEng        Density         KinEng         TotEng           Lx             Ly             Lz            Xlo            Xhi            Ylo            Yhi            Zlo            Zhi           Volume           Dt            Time           CPU           T/CPU          S/CPU         CPULeft
16405000   374143.54      13.774797     -26343076       0.31265479     1114135.6     -25228941       1243.4469      1243.4469      1243.4469      1878.2765      3121.7235      1878.2765      3121.7235      1878.2765      3121.7235      1.9225682e+09  0.5            8205000        0              0              0              0
Averages over the last 251 of 501 rows, steps 16455000 to 16505000:
Temp Press PotEng Density KinEng TotEng Lx Ly Lz Xlo Xhi Ylo Yhi Zlo Zhi Volume Dt
93166.5 -23.3526 -2.71774e+07 0.312655 277434 -2.68999e+07 1243.45 1243.45 1243.45 1878.28 3121.72 1878.28 3121.72 1878.28 3121.72 1.92257e+09 0.5
Loop time of 9.81799 on 1 procs for 100000 steps with 1000 atoms

unfix 4

fix 5 all npt temp 300 300 $(100.0*dt) iso 1.0 1.0 $(1000.0*dt)
fix 5 all npt temp 300 300 50 iso 1.0 1.0 $(1000.0*dt)
fix 5 all npt temp 300 300 50 iso 1.0 1.0 500

run 300000
Generated 0 of 1 mixed pair_coeff terms from geometric mixing rule
Step          Temp          Press          PotEng        Density         KinEng         TotEng           Lx             Ly             Lz            Xlo            Xhi            Ylo            Yhi            Zlo            Zhi           Volume           Dt            Time           CPU           T/CPU          S/CPU         CPULeft
16505000   1359.657      -35.002095     -27515238       0.31265479     4048.8265     -27511189       1243.4469      1243.4469      1243.4469      1878.2765      3121.7235      1878.2765      3121.7235      1878.2765      3121.7235      1.9225682e+09  0.5            8255000        0              0              0              0
Averages over the last 751 of 1501 rows, steps 16655000 to 16805000:
Temp Press PotEng Density KinEng TotEng Lx Ly Lz Xlo Xhi Ylo Yhi Zlo Zhi Volume Dt
309.107 0.991708 -2.79862e+07 0.31958 920.468 -2.79852e+07 1234.4 1234.4 1234.4 1882.8 3117.2 1882.8 3117.2 1882.8 3117.2 1.88091e+09 0.5
Loop time of 36.5844 on 1 procs for 300000 steps with 1000 atoms

# run_style
run_style verlet

# write restart
write_restart ./pgnpmf/300700/equpmf24.res
System init for write_restart ...
Generated 0 of 1 mixed pair_coeff terms from geometric mixing rule
