LAMMPS (23 Jun 2022 - Update 1)
# Read restart
read_restart ./pgnpmf/300700/equpmf31.res
Reading restart file ...
  restart file = 23 Jun 2022, LAMMPS = 23 Jun 2022
  restoring atom style atomic from restart
  orthogonal box = (1916.7551 1916.7551 1916.7551) to (3083.2449 3083.2449 3083.2449)
  restoring pair style table from restart
  1000 atoms
  read_restart CPU = 0.008 seconds

# Settings

pair_style table spline 9941

pair_coeff 1 1 ./pgnpmf/N20.txt DE_GNP 75.6
pair_coeff 2 2 ./pgnpmf/N100.txt DE_GNP 115.92
pair_coeff 1 2 ./pgnpmf/mixed_potential.txt DE_GNP 95.66

#Neigh_list Calc Frequency

neigh_modify delay 0 every 1 check yes

# Saving Frequency (50 frames)

variable ts_save equal 5000

# Dump
dump 1 all custom 5000 ./pgnpmf/300700/equilibration/trajectory/trajectory_1_1.equ.custom type x y z ix iy iz
dump_modify 1 first no sort id
#dump 2 all cfg 50000 ./equilibration/trajectory/ovito/dumpgen.tens_*.cfg mass type xs ys zs fx fy fz

# thermo_style
thermo_style custom step temp press pe density ke etotal lx ly lz xlo xhi ylo yhi zlo zhi vol dt time cpu tpcpu spcpu cpuremain

# run info
timestep 0.5
thermo 200

# fix

fix 1 all momentum 1000 linear 1 1 1 angular
variable T equal 300
fix 2 all nvt temp 300 370000 100.0

run 100000
Generated 0 of 1 mixed pair_coeff terms from geometric mixing rule
Unused restart file global fix info:
  fix style: npt, fix ID: 5
  update every 1 steps, delay 0 steps, check yes
Step          Temp          Press          PotEng        Density         KinEng         TotEng           Lx             Ly             Lz            Xlo            Xhi            Ylo            Yhi            Zlo            Zhi           Volume           Dt            Time           CPU           T/CPU          S/CPU         CPULeft
21705000   307.40983      1.0388726     -31957553       0.37870753     915.41397     -31956638       1166.4898      1166.4898      1166.4898      1916.7551      3083.2449      1916.7551      3083.2449      1916.7551      3083.2449      1.5872411e+09  0.5            10855000       0              0              0              0
Averages over the last 251 of 501 rows, steps 21755000 to 21805000:
Temp Press PotEng Density KinEng TotEng Lx Ly Lz Xlo Xhi Ylo Yhi Zlo Zhi Volume Dt
277274 -0.966234 -3.12439e+07 0.378708 825675 -3.04182e+07 1166.49 1166.49 1166.49 1916.76 3083.24 1916.76 3083.24 1916.76 3083.24 1.58724e+09 0.5
Loop time of 11.2074 on 1 procs for 100000 steps with 1000 atoms

unfix 2

fix 3 all nvt temp 370000 370000 $(100.0*dt) #iso 1.0 1.0 $(1000.0*dt)
fix 3 all nvt temp 370000 370000 50

run 200000
Generated 0 of 1 mixed pair_coeff terms from geometric mixing rule
Step          Temp          Press          PotEng        Density         KinEng         TotEng           Lx             Ly             Lz            Xlo            Xhi            Ylo            Yhi            Zlo            Zhi           Volume           Dt            Time           CPU           T/CPU          S/CPU         CPULeft
21805000   372676.93     -23.251462     -30761510       0.37870753     1109768.2     -29651742       1166.4898      1166.4898      1166.4898      1916.7551      3083.2449      1916.7551      3083.2449      1916.7551      3083.2449      1.5872411e+09  0.5            10905000       0              0              0              0
Averages over the last 501 of 1001 rows, steps 21905000 to 22005000:
Temp Press PotEng Density KinEng TotEng Lx Ly Lz Xlo Xhi Ylo Yhi Zlo Zhi Volume Dt
369905 9.5949 -2.99792e+07 0.378708 1.10151e+06 -2.88777e+07 1166.49 1166.49 1166.49 1916.76 3083.24 1916.76 3083.24 1916.76 3083.24 1.58724e+09 0.5
Loop time of 22.2122 on 1 procs for 200000 steps with 1000 atoms

unfix 3

fix 4 all nvt temp 370000 300 100.0

run 100000
Generated 0 of 1 mixed pair_coeff terms from geometric mixing rule
Step          Temp          Press          PotEng        Density         KinEng         TotEng           Lx             Ly             Lz            Xlo            Xhi            Ylo            Yhi            Zlo            Zhi           Volume           Dt            Time           CPU           T/CPU          S/CPU         CPULeft
22005000   374768.61      10.795783     -30110551       0.37870753     1115996.9     -28994555       1166.4898      1166.4898      1166.4898      1916.7551      3083.2449      1916.7551      3083.2449      1916.7551      3083.2449      1.5872411e+09  0.5            11005000       0              0              0              0
Averages over the last 251 of 501 rows, steps 22055000 to 22105000:
Temp Press PotEng Density KinEng TotEng Lx Ly Lz Xlo Xhi Ylo Yhi Zlo Zhi Volume Dt
92965.3 -47.0319 -3.10226e+07 0.378708 276835 -3.07458e+07 1166.49 1166.49 1166.49 1916.76 3083.24 1916.76 3083.24 1916.76 3083.24 1.58724e+09 0.5
Loop time of 10.9145 on 1 procs for 100000 steps with 1000 atoms

unfix 4

fix 5 all npt temp 300 300 $(100.0*dt) iso 1.0 1.0 $(1000.0*dt)
fix 5 all npt temp 300 300 50 iso 1.0 1.0 $(1000.0*dt)
fix 5 all npt temp 300 300 50 iso 1.0 1.0 500

run 300000
Generated 0 of 1 mixed pair_coeff terms from geometric mixing rule
Step          Temp          Press          PotEng        Density         KinEng         TotEng           Lx             Ly             Lz            Xlo            Xhi            Ylo            Yhi            Zlo            Zhi           Volume           Dt            Time           CPU           T/CPU          S/CPU         CPULeft
22105000   1365.0938     -57.259702     -31441192       0.37870753     4065.0163     -31437127       1166.4898      1166.4898      1166.4898      1916.7551      3083.2449      1916.7551      3083.2449      1916.7551      3083.2449      1.5872411e+09  0.5            11055000       0              0              0              0
Averages over the last 751 of 1501 rows, steps 22255000 to 22405000:
Temp Press PotEng Density KinEng TotEng Lx Ly Lz Xlo Xhi Ylo Yhi Zlo Zhi Volume Dt
306.175 1.02862 -3.17291e+07 0.386701 911.737 -3.17282e+07 1158.4 1158.4 1158.4 1920.8 3079.2 1920.8 3079.2 1920.8 3079.2 1.55443e+09 0.5
Loop time of 40.0114 on 1 procs for 300000 steps with 1000 atoms

# run_style
run_style verlet

# write restart
write_restart ./pgnpmf/300700/equpmf32.res
System init for write_restart ...
Generated 0 of 1 mixed pair_coeff terms from geometric mixing rule
