LAMMPS (23 Jun 2022 - Update 1)
# Read restart
read_restart ./pgnpmf/300700/equpmf42.res
Reading restart file ...
  restart file = 23 Jun 2022, LAMMPS = 23 Jun 2022
  restoring atom style atomic from restart
  orthogonal box = (1972.4403 1972.4403 1972.4403) to (3027.5597 3027.5597 3027.5597)
  restoring pair style table from restart
  1000 atoms
  read_restart CPU = 0.010 seconds

# Settings

pair_style table spline 9941

pair_coeff 1 1 ./pgnpmf/N20.txt DE_GNP 75.6
pair_coeff 2 2 ./pgnpmf/N100.txt DE_GNP 115.92
pair_coeff 1 2 ./pgnpmf/mixed_potential.txt DE_GNP 95.66

#Neigh_list Calc Frequency

neigh_modify delay 0 every 1 check yes

# Saving Frequency (50 frames)

variable ts_save equal 5000

# Dump
#dump_modify 1 first no sort id
#dump 2 all cfg 50000 ./equilibration/trajectory/ovito/dumpgen.tens_*.cfg mass type xs ys zs fx fy fz

# thermo_style
thermo_style custom step temp press pe density ke etotal lx ly lz xlo xhi ylo yhi zlo zhi vol dt time cpu tpcpu spcpu cpuremain

# run info
timestep 0.5
thermo 200

# fix

fix 1 all momentum 1000 linear 1 1 1 angular
variable T equal 300
fix 2 all nvt temp 300 370000 100.0

run 100000
Generated 0 of 1 mixed pair_coeff terms from geometric mixing rule
Unused restart file global fix info:
  fix style: npt, fix ID: 5
  update every 1 steps, delay 0 steps, check yes
Step          Temp          Press          PotEng        Density         KinEng         TotEng           Lx             Ly             Lz            Xlo            Xhi            Ylo            Yhi            Zlo            Zhi           Volume           Dt            Time           CPU           T/CPU          S/CPU         CPULeft
29405000   305.78696     -0.69824599    -35301777       0.51173138     910.58134     -35300867       1055.1194      1055.1194      1055.1194      1972.4403      3027.5597      1972.4403      3027.5597      1972.4403      3027.5597      1.17464e+09    0.5            14705000       0              0              0              0
Averages over the last 251 of 501 rows, steps 29455000 to 29505000:
Temp Press PotEng Density KinEng TotEng Lx Ly Lz Xlo Xhi Ylo Yhi Zlo Zhi Volume Dt
277220 14.3603 -3.49291e+07 0.511731 825513 -3.41035e+07 1055.12 1055.12 1055.12 1972.44 3027.56 1972.44 3027.56 1972.44 3027.56 1.17464e+09 0.5
Loop time of 11.9146 on 1 procs for 100000 steps with 1000 atoms

unfix 2

fix 3 all nvt temp 370000 370000 $(100.0*dt) #iso 1.0 1.0 $(1000.0*dt)
fix 3 all nvt temp 370000 370000 50

run 200000
Generated 0 of 1 mixed pair_coeff terms from geometric mixing rule
Step          Temp          Press          PotEng        Density         KinEng         TotEng           Lx             Ly             Lz            Xlo            Xhi            Ylo            Yhi            Zlo            Zhi           Volume           Dt            Time           CPU           T/CPU          S/CPU         CPULeft
29505000   354499.04     -8.3707698     -34375638       0.51173138     1055637.6     -33320000       1055.1194      1055.1194      1055.1194      1972.4403      3027.5597      1972.4403      3027.5597      1972.4403      3027.5597      1.17464e+09    0.5            14755000       0              0              0              0
Averages over the last 501 of 1001 rows, steps 29605000 to 29705000:
Temp Press PotEng Density KinEng TotEng Lx Ly Lz Xlo Xhi Ylo Yhi Zlo Zhi Volume Dt
370311 18.5478 -3.36997e+07 0.511731 1.10272e+06 -3.2597e+07 1055.12 1055.12 1055.12 1972.44 3027.56 1972.44 3027.56 1972.44 3027.56 1.17464e+09 0.5
Loop time of 23.9884 on 1 procs for 200000 steps with 1000 atoms

unfix 3

fix 4 all nvt temp 370000 300 100.0

run 100000
Generated 0 of 1 mixed pair_coeff terms from geometric mixing rule
Step          Temp          Press          PotEng        Density         KinEng         TotEng           Lx             Ly             Lz            Xlo            Xhi            Ylo            Yhi            Zlo            Zhi           Volume           Dt            Time           CPU           T/CPU          S/CPU         CPULeft
29705000   377654.21      32.52759      -33762804       0.51173138     1124589.7     -32638215       1055.1194      1055.1194      1055.1194      1972.4403      3027.5597      1972.4403      3027.5597      1972.4403      3027.5597      1.17464e+09    0.5            14855000       0              0              0              0
Averages over the last 251 of 501 rows, steps 29755000 to 29805000:
Temp Press PotEng Density KinEng TotEng Lx Ly Lz Xlo Xhi Ylo Yhi Zlo Zhi Volume Dt
93190.7 -58.1309 -3.47846e+07 0.511731 277506 -3.45071e+07 1055.12 1055.12 1055.12 1972.44 3027.56 1972.44 3027.56 1972.44 3027.56 1.17464e+09 0.5
Loop time of 11.7439 on 1 procs for 100000 steps with 1000 atoms

unfix 4

fix 5 all npt temp 300 300 $(100.0*dt) iso 1.0 1.0 $(1000.0*dt)
fix 5 all npt temp 300 300 50 iso 1.0 1.0 $(1000.0*dt)
fix 5 all npt temp 300 300 50 iso 1.0 1.0 500

run 300000
Generated 0 of 1 mixed pair_coeff terms from geometric mixing rule
Step          Temp          Press          PotEng        Density         KinEng         TotEng           Lx             Ly             Lz            Xlo            Xhi            Ylo            Yhi            Zlo            Zhi           Volume           Dt            Time           CPU           T/CPU          S/CPU         CPULeft
29805000   1360.1238     -81.157759     -35277757       0.51173138     4050.2163     -35273707       1055.1194      1055.1194      1055.1194      1972.4403      3027.5597      1972.4403      3027.5597      1972.4403      3027.5597      1.17464e+09    0.5            14905000       0              0              0              0
Averages over the last 751 of 1501 rows, steps 29955000 to 30105000:
Temp Press PotEng Density KinEng TotEng Lx Ly Lz Xlo Xhi Ylo Yhi Zlo Zhi Volume Dt
306.334 1.04779 -3.5599e+07 0.520392 912.211 -3.55981e+07 1049.23 1049.23 1049.23 1975.38 3024.62 1975.38 3024.62 1975.38 3024.62 1.15509e+09 0.5
Loop time of 42.4652 on 1 procs for 300000 steps with 1000 atoms

# run_style
run_style verlet

# write restart
write_restart ./pgnpmf/300700/equpmf43.res
System init for write_restart ...
Generated 0 of 1 mixed pair_coeff terms from geometric mixing rule
