LAMMPS (23 Jun 2022 - Update 1)
# Read restart
read_restart ./pgnpmf/300700/equpmf3.res
Reading restart file ...
  restart file = 23 Jun 2022, LAMMPS = 23 Jun 2022
  restoring atom style atomic from restart
  orthogonal box = (1225.6024 1225.6024 1225.6024) to (3774.3976 3774.3976 3774.3976)
  restoring pair style table from restart
  1000 atoms
  read_restart CPU = 0.006 seconds

# Settings

pair_style table spline 9941

pair_coeff 1 1 ./pgnpmf/N20.txt DE_GNP 75.6
pair_coeff 2 2 ./pgnpmf/N100.txt DE_GNP 115.92
pair_coeff 1 2 ./pgnpmf/mixed_potential.txt DE_GNP 95.66

#Neigh_list Calc Frequency

neigh_modify delay 0 every 1 check yes

# Saving Frequency (50 frames)

variable ts_save equal 5000

# Dump
dump 1 all custom 5000 ./pgnpmf/300700/equilibration/trajectory/trajectory_1_1.equ.custom type x y z ix iy iz
dump_modify 1 first no sort id
#dump 2 all cfg 50000 ./equilibration/trajectory/ovito/dumpgen.tens_*.cfg mass type xs ys zs fx fy fz

# thermo_style
thermo_style custom step temp press pe density ke etotal lx ly lz xlo xhi ylo yhi zlo zhi vol dt time cpu tpcpu spcpu cpuremain

# run info
timestep 0.5
thermo 200

# fix

fix 1 all momentum 1000 linear 1 1 1 angular
variable T equal 300
fix 2 all nvt temp 300 370000 100.0

run 100000
Generated 0 of 1 mixed pair_coeff terms from geometric mixing rule
Unused restart file global fix info:
  fix style: npt, fix ID: 5
  update every 1 steps, delay 0 steps, check yes
Step          Temp          Press          PotEng        Density         KinEng         TotEng           Lx             Ly             Lz            Xlo            Xhi            Ylo            Yhi            Zlo            Zhi           Volume           Dt            Time           CPU           T/CPU          S/CPU         CPULeft
2105000   316.29198      1.0155863     -5433076        0.036302961    941.86352     -5432134.2      2548.7951      2548.7951      2548.7951      1225.6024      3774.3976      1225.6024      3774.3976      1225.6024      3774.3976      1.6557882e+10  0.5            1055000        0              0              0              0
Averages over the last 251 of 501 rows, steps 2155000 to 2205000:
Temp Press PotEng Density KinEng TotEng Lx Ly Lz Xlo Xhi Ylo Yhi Zlo Zhi Volume Dt
277690 1.83948 -5.36459e+06 0.036303 826914 -4.53768e+06 2548.8 2548.8 2548.8 1225.6 3774.4 1225.6 3774.4 1225.6 3774.4 1.65579e+10 0.5
Loop time of 4.24336 on 1 procs for 100000 steps with 1000 atoms

unfix 2

fix 3 all nvt temp 370000 370000 $(100.0*dt) #iso 1.0 1.0 $(1000.0*dt)
fix 3 all nvt temp 370000 370000 50

run 200000
Generated 0 of 1 mixed pair_coeff terms from geometric mixing rule
Step          Temp          Press          PotEng        Density         KinEng         TotEng           Lx             Ly             Lz            Xlo            Xhi            Ylo            Yhi            Zlo            Zhi           Volume           Dt            Time           CPU           T/CPU          S/CPU         CPULeft
2205000   361622.13      1.5209045     -5158957.1      0.036302961    1076849       -4082108.2      2548.7951      2548.7951      2548.7951      1225.6024      3774.3976      1225.6024      3774.3976      1225.6024      3774.3976      1.6557882e+10  0.5            1105000        0              0              0              0
Averages over the last 501 of 1001 rows, steps 2305000 to 2405000:
Temp Press PotEng Density KinEng TotEng Lx Ly Lz Xlo Xhi Ylo Yhi Zlo Zhi Volume Dt
370094 2.06751 -4.80021e+06 0.036303 1.10208e+06 -3.69813e+06 2548.8 2548.8 2548.8 1225.6 3774.4 1225.6 3774.4 1225.6 3774.4 1.65579e+10 0.5
Loop time of 8.37504 on 1 procs for 200000 steps with 1000 atoms

unfix 3

fix 4 all nvt temp 370000 300 100.0

run 100000
Generated 0 of 1 mixed pair_coeff terms from geometric mixing rule
Step          Temp          Press          PotEng        Density         KinEng         TotEng           Lx             Ly             Lz            Xlo            Xhi            Ylo            Yhi            Zlo            Zhi           Volume           Dt            Time           CPU           T/CPU          S/CPU         CPULeft
2405000   359542.01      1.8716596     -4632646.2      0.036302961    1070654.7     -3561991.5      2548.7951      2548.7951      2548.7951      1225.6024      3774.3976      1225.6024      3774.3976      1225.6024      3774.3976      1.6557882e+10  0.5            1205000        0              0              0              0
Averages over the last 251 of 501 rows, steps 2455000 to 2505000:
Temp Press PotEng Density KinEng TotEng Lx Ly Lz Xlo Xhi Ylo Yhi Zlo Zhi Volume Dt
92989.3 -0.950715 -4.91782e+06 0.036303 276906 -4.64092e+06 2548.8 2548.8 2548.8 1225.6 3774.4 1225.6 3774.4 1225.6 3774.4 1.65579e+10 0.5
Loop time of 4.0712 on 1 procs for 100000 steps with 1000 atoms

unfix 4

fix 5 all npt temp 300 300 $(100.0*dt) iso 1.0 1.0 $(1000.0*dt)
fix 5 all npt temp 300 300 50 iso 1.0 1.0 $(1000.0*dt)
fix 5 all npt temp 300 300 50 iso 1.0 1.0 500

run 300000
Generated 0 of 1 mixed pair_coeff terms from geometric mixing rule
Step          Temp          Press          PotEng        Density         KinEng         TotEng           Lx             Ly             Lz            Xlo            Xhi            Ylo            Yhi            Zlo            Zhi           Volume           Dt            Time           CPU           T/CPU          S/CPU         CPULeft
2505000   1310.9195     -2.4429188     -5140571.3      0.036302961    3903.6944     -5136667.6      2548.7951      2548.7951      2548.7951      1225.6024      3774.3976      1225.6024      3774.3976      1225.6024      3774.3976      1.6557882e+10  0.5            1255000        0              0              0              0
Averages over the last 751 of 1501 rows, steps 2655000 to 2805000:
Temp Press PotEng Density KinEng TotEng Lx Ly Lz Xlo Xhi Ylo Yhi Zlo Zhi Volume Dt
315.574 1.00147 -5.93919e+06 0.0466037 939.727 -5.93825e+06 2345.82 2345.82 2345.82 1327.09 3672.91 1327.09 3672.91 1327.09 3672.91 1.2914e+10 0.5
Loop time of 19.8478 on 1 procs for 300000 steps with 1000 atoms

# run_style
run_style verlet

# write restart
write_restart ./pgnpmf/300700/equpmf4.res
System init for write_restart ...
Generated 0 of 1 mixed pair_coeff terms from geometric mixing rule
