LAMMPS (23 Jun 2022 - Update 1)
# Read restart
read_restart ./pgnpmf/300700/equpmf67.res
Reading restart file ...
  restart file = 23 Jun 2022, LAMMPS = 23 Jun 2022
  restoring atom style atomic from restart
  orthogonal box = (2101.4033 2101.4033 2101.4033) to (2898.5967 2898.5967 2898.5967)
  restoring pair style table from restart
  1000 atoms
  read_restart CPU = 0.007 seconds

# Settings

pair_style table spline 9941

pair_coeff 1 1 ./pgnpmf/N20.txt DE_GNP 75.6
pair_coeff 2 2 ./pgnpmf/N100.txt DE_GNP 115.92
pair_coeff 1 2 ./pgnpmf/mixed_potential.txt DE_GNP 95.66

#Neigh_list Calc Frequency

neigh_modify delay 0 every 1 check yes

# Saving Frequency (50 frames)

variable ts_save equal 5000

# Dump
#dump_modify 1 first no sort id
#dump 2 all cfg 50000 ./equilibration/trajectory/ovito/dumpgen.tens_*.cfg mass type xs ys zs fx fy fz

# thermo_style
thermo_style custom step temp press pe density ke etotal lx ly lz xlo xhi ylo yhi zlo zhi vol dt time cpu tpcpu spcpu cpuremain

# run info
timestep 0.5
thermo 200

# fix

fix 1 all momentum 1000 linear 1 1 1 angular
variable T equal 300
fix 2 all nvt temp 300 370000 100.0

run 100000
Generated 0 of 1 mixed pair_coeff terms from geometric mixing rule
Unused restart file global fix info:
  fix style: npt, fix ID: 5
  update every 1 steps, delay 0 steps, check yes
Step          Temp          Press          PotEng        Density         KinEng         TotEng           Lx             Ly             Lz            Xlo            Xhi            Ylo            Yhi            Zlo            Zhi           Volume           Dt            Time           CPU           T/CPU          S/CPU         CPULeft
46905000   307.63495      0.64881329    -40545704       1.186467       916.08436     -40544788       797.19345      797.19345      797.19345      2101.4033      2898.5967      2101.4033      2898.5967      2101.4033      2898.5967      5.0663031e+08  0.5            23455000       0              0              0              0
Averages over the last 251 of 501 rows, steps 46955000 to 47005000:
Temp Press PotEng Density KinEng TotEng Lx Ly Lz Xlo Xhi Ylo Yhi Zlo Zhi Volume Dt
277377 201.012 -3.98801e+07 1.18647 825982 -3.90541e+07 797.193 797.193 797.193 2101.4 2898.6 2101.4 2898.6 2101.4 2898.6 5.0663e+08 0.5
Loop time of 7.20939 on 8 procs for 100000 steps with 1000 atoms

unfix 2

fix 3 all nvt temp 370000 370000 $(100.0*dt) #iso 1.0 1.0 $(1000.0*dt)
fix 3 all nvt temp 370000 370000 50

run 200000
Generated 0 of 1 mixed pair_coeff terms from geometric mixing rule
Step          Temp          Press          PotEng        Density         KinEng         TotEng           Lx             Ly             Lz            Xlo            Xhi            Ylo            Yhi            Zlo            Zhi           Volume           Dt            Time           CPU           T/CPU          S/CPU         CPULeft
47005000   363997.1       337.23359     -39538376       1.186467       1083921.2     -38454455       797.19345      797.19345      797.19345      2101.4033      2898.5967      2101.4033      2898.5967      2101.4033      2898.5967      5.0663031e+08  0.5            23505000       0              0              0              0
Averages over the last 501 of 1001 rows, steps 47105000 to 47205000:
Temp Press PotEng Density KinEng TotEng Lx Ly Lz Xlo Xhi Ylo Yhi Zlo Zhi Volume Dt
370108 59.4644 -3.86049e+07 1.18647 1.10212e+06 -3.75028e+07 797.193 797.193 797.193 2101.4 2898.6 2101.4 2898.6 2101.4 2898.6 5.0663e+08 0.5
Loop time of 13.987 on 8 procs for 200000 steps with 1000 atoms

unfix 3

fix 4 all nvt temp 370000 300 100.0

run 100000
Generated 0 of 1 mixed pair_coeff terms from geometric mixing rule
Step          Temp          Press          PotEng        Density         KinEng         TotEng           Lx             Ly             Lz            Xlo            Xhi            Ylo            Yhi            Zlo            Zhi           Volume           Dt            Time           CPU           T/CPU          S/CPU         CPULeft
47205000   355608.43      96.21071      -38631254       1.186467       1058941.2     -37572313       797.19345      797.19345      797.19345      2101.4033      2898.5967      2101.4033      2898.5967      2101.4033      2898.5967      5.0663031e+08  0.5            23605000       0              0              0              0
Averages over the last 251 of 501 rows, steps 47255000 to 47305000:
Temp Press PotEng Density KinEng TotEng Lx Ly Lz Xlo Xhi Ylo Yhi Zlo Zhi Volume Dt
93227.2 -537.4 -3.95519e+07 1.18647 277615 -3.92743e+07 797.193 797.193 797.193 2101.4 2898.6 2101.4 2898.6 2101.4 2898.6 5.0663e+08 0.5
Loop time of 7.13756 on 8 procs for 100000 steps with 1000 atoms

unfix 4

fix 5 all npt temp 300 300 $(100.0*dt) iso 1.0 1.0 $(1000.0*dt)
fix 5 all npt temp 300 300 50 iso 1.0 1.0 $(1000.0*dt)
fix 5 all npt temp 300 300 50 iso 1.0 1.0 500

run 300000
Generated 0 of 1 mixed pair_coeff terms from geometric mixing rule
Step          Temp          Press          PotEng        Density         KinEng         TotEng           Lx             Ly             Lz            Xlo            Xhi            Ylo            Yhi            Zlo            Zhi           Volume           Dt            Time           CPU           T/CPU          S/CPU         CPULeft
47305000   1354.9074     -643.70898     -40030384       1.186467       4034.6829     -40026349       797.19345      797.19345      797.19345      2101.4033      2898.5967      2101.4033      2898.5967      2101.4033      2898.5967      5.0663031e+08  0.5            23655000       0              0              0              0
Averages over the last 751 of 1501 rows, steps 47455000 to 47605000:
Temp Press PotEng Density KinEng TotEng Lx Ly Lz Xlo Xhi Ylo Yhi Zlo Zhi Volume Dt
308.954 0.934267 -4.08806e+07 1.24041 920.012 -4.08796e+07 785.467 785.467 785.467 2107.27 2892.73 2107.27 2892.73 2107.27 2892.73 4.84601e+08 0.5
Loop time of 26.5125 on 8 procs for 300000 steps with 1000 atoms

# run_style
run_style verlet

# write restart
write_restart ./pgnpmf/300700/equpmf68.res
System init for write_restart ...
Generated 0 of 1 mixed pair_coeff terms from geometric mixing rule
