LAMMPS (23 Jun 2022 - Update 1)
# Read restart
read_restart ./pgnpmf/300700/equpmf20.res
Reading restart file ...
  restart file = 23 Jun 2022, LAMMPS = 23 Jun 2022
  restoring atom style atomic from restart
  orthogonal box = (1861.1946 1861.1946 1861.1946) to (3138.8054 3138.8054 3138.8054)
  restoring pair style table from restart
  1000 atoms
  read_restart CPU = 0.006 seconds

# Settings

pair_style table spline 9941

pair_coeff 1 1 ./pgnpmf/N20.txt DE_GNP 75.6
pair_coeff 2 2 ./pgnpmf/N100.txt DE_GNP 115.92
pair_coeff 1 2 ./pgnpmf/mixed_potential.txt DE_GNP 95.66

#Neigh_list Calc Frequency

neigh_modify delay 0 every 1 check yes

# Saving Frequency (50 frames)

variable ts_save equal 5000

# Dump
dump 1 all custom 5000 ./pgnpmf/300700/equilibration/trajectory/trajectory_1_1.equ.custom type x y z ix iy iz
dump_modify 1 first no sort id
#dump 2 all cfg 50000 ./equilibration/trajectory/ovito/dumpgen.tens_*.cfg mass type xs ys zs fx fy fz

# thermo_style
thermo_style custom step temp press pe density ke etotal lx ly lz xlo xhi ylo yhi zlo zhi vol dt time cpu tpcpu spcpu cpuremain

# run info
timestep 0.5
thermo 200

# fix

fix 1 all momentum 1000 linear 1 1 1 angular
variable T equal 300
fix 2 all nvt temp 300 370000 100.0

run 100000
Generated 0 of 1 mixed pair_coeff terms from geometric mixing rule
Unused restart file global fix info:
  fix style: npt, fix ID: 5
  update every 1 steps, delay 0 steps, check yes
Step          Temp          Press          PotEng        Density         KinEng         TotEng           Lx             Ly             Lz            Xlo            Xhi            Ylo            Yhi            Zlo            Zhi           Volume           Dt            Time           CPU           T/CPU          S/CPU         CPULeft
14005000   307.50156      0.75347151    -24335100       0.28823785     915.68715     -24334184       1277.6109      1277.6109      1277.6109      1861.1946      3138.8054      1861.1946      3138.8054      1861.1946      3138.8054      2.085431e+09   0.5            7005000        0              0              0              0
Averages over the last 251 of 501 rows, steps 14055000 to 14105000:
Temp Press PotEng Density KinEng TotEng Lx Ly Lz Xlo Xhi Ylo Yhi Zlo Zhi Volume Dt
277592 -2.79712 -2.38411e+07 0.288238 826621 -2.30145e+07 1277.61 1277.61 1277.61 1861.19 3138.81 1861.19 3138.81 1861.19 3138.81 2.08543e+09 0.5
Loop time of 8.97076 on 1 procs for 100000 steps with 1000 atoms

unfix 2

fix 3 all nvt temp 370000 370000 $(100.0*dt) #iso 1.0 1.0 $(1000.0*dt)
fix 3 all nvt temp 370000 370000 50

run 200000
Generated 0 of 1 mixed pair_coeff terms from geometric mixing rule
Step          Temp          Press          PotEng        Density         KinEng         TotEng           Lx             Ly             Lz            Xlo            Xhi            Ylo            Yhi            Zlo            Zhi           Volume           Dt            Time           CPU           T/CPU          S/CPU         CPULeft
14105000   350286.31      3.656894      -23330338       0.28823785     1043092.8     -22287245       1277.6109      1277.6109      1277.6109      1861.1946      3138.8054      1861.1946      3138.8054      1861.1946      3138.8054      2.085431e+09   0.5            7055000        0              0              0              0
Averages over the last 501 of 1001 rows, steps 14205000 to 14305000:
Temp Press PotEng Density KinEng TotEng Lx Ly Lz Xlo Xhi Ylo Yhi Zlo Zhi Volume Dt
369840 14.8649 -2.28112e+07 0.288238 1.10132e+06 -2.17099e+07 1277.61 1277.61 1277.61 1861.19 3138.81 1861.19 3138.81 1861.19 3138.81 2.08543e+09 0.5
Loop time of 17.8605 on 1 procs for 200000 steps with 1000 atoms

unfix 3

fix 4 all nvt temp 370000 300 100.0

run 100000
Generated 0 of 1 mixed pair_coeff terms from geometric mixing rule
Step          Temp          Press          PotEng        Density         KinEng         TotEng           Lx             Ly             Lz            Xlo            Xhi            Ylo            Yhi            Zlo            Zhi           Volume           Dt            Time           CPU           T/CPU          S/CPU         CPULeft
14305000   369508.4       4.2914094     -22642582       0.28823785     1100332.9     -21542249       1277.6109      1277.6109      1277.6109      1861.1946      3138.8054      1861.1946      3138.8054      1861.1946      3138.8054      2.085431e+09   0.5            7155000        0              0              0              0
Averages over the last 251 of 501 rows, steps 14355000 to 14405000:
Temp Press PotEng Density KinEng TotEng Lx Ly Lz Xlo Xhi Ylo Yhi Zlo Zhi Volume Dt
93151.5 -18.8593 -2.36959e+07 0.288238 277389 -2.34185e+07 1277.61 1277.61 1277.61 1861.19 3138.81 1861.19 3138.81 1861.19 3138.81 2.08543e+09 0.5
Loop time of 8.82489 on 1 procs for 100000 steps with 1000 atoms

unfix 4

fix 5 all npt temp 300 300 $(100.0*dt) iso 1.0 1.0 $(1000.0*dt)
fix 5 all npt temp 300 300 50 iso 1.0 1.0 $(1000.0*dt)
fix 5 all npt temp 300 300 50 iso 1.0 1.0 500

run 300000
Generated 0 of 1 mixed pair_coeff terms from geometric mixing rule
Step          Temp          Press          PotEng        Density         KinEng         TotEng           Lx             Ly             Lz            Xlo            Xhi            Ylo            Yhi            Zlo            Zhi           Volume           Dt            Time           CPU           T/CPU          S/CPU         CPULeft
14405000   1351.9119     -32.002061     -24127804       0.28823785     4025.7629     -24123778       1277.6109      1277.6109      1277.6109      1861.1946      3138.8054      1861.1946      3138.8054      1861.1946      3138.8054      2.085431e+09   0.5            7205000        0              0              0              0
Averages over the last 751 of 1501 rows, steps 14555000 to 14705000:
Temp Press PotEng Density KinEng TotEng Lx Ly Lz Xlo Xhi Ylo Yhi Zlo Zhi Volume Dt
307.869 0.984934 -2.44644e+07 0.295402 916.782 -2.44635e+07 1267.2 1267.2 1267.2 1866.4 3133.6 1866.4 3133.6 1866.4 3133.6 2.03487e+09 0.5
Loop time of 33.6192 on 1 procs for 300000 steps with 1000 atoms

# run_style
run_style verlet

# write restart
write_restart ./pgnpmf/300700/equpmf21.res
System init for write_restart ...
Generated 0 of 1 mixed pair_coeff terms from geometric mixing rule
