LAMMPS (23 Jun 2022 - Update 1)
# Read restart
read_restart ./pgnpmf/300700/equpmf89.res
Reading restart file ...
  restart file = 23 Jun 2022, LAMMPS = 23 Jun 2022
  restoring atom style atomic from restart
  orthogonal box = (2150.9096 2150.9096 2150.9096) to (2849.0904 2849.0904 2849.0904)
  restoring pair style table from restart
  1000 atoms
  read_restart CPU = 0.005 seconds

# Settings

pair_style table spline 9941

pair_coeff 1 1 ./pgnpmf/N20.txt DE_GNP 75.6
pair_coeff 2 2 ./pgnpmf/N100.txt DE_GNP 115.92
pair_coeff 1 2 ./pgnpmf/mixed_potential.txt DE_GNP 95.66

#Neigh_list Calc Frequency

neigh_modify delay 0 every 1 check yes

# Saving Frequency (50 frames)

variable ts_save equal 5000

# Dump
#dump_modify 1 first no sort id
#dump 2 all cfg 50000 ./equilibration/trajectory/ovito/dumpgen.tens_*.cfg mass type xs ys zs fx fy fz

# thermo_style
thermo_style custom step temp press pe density ke etotal lx ly lz xlo xhi ylo yhi zlo zhi vol dt time cpu tpcpu spcpu cpuremain

# run info
timestep 0.5
thermo 200

# fix

fix 1 all momentum 1000 linear 1 1 1 angular
variable T equal 300
fix 2 all nvt temp 300 370000 100.0

run 100000
Generated 0 of 1 mixed pair_coeff terms from geometric mixing rule
Unused restart file global fix info:
  fix style: npt, fix ID: 5
  update every 1 steps, delay 0 steps, check yes
Step          Temp          Press          PotEng        Density         KinEng         TotEng           Lx             Ly             Lz            Xlo            Xhi            Ylo            Yhi            Zlo            Zhi           Volume           Dt            Time           CPU           T/CPU          S/CPU         CPULeft
62305000   283.90897     -4.8648383     -44982701       1.766213       845.43243     -44981856       698.18083      698.18083      698.18083      2150.9096      2849.0904      2150.9096      2849.0904      2150.9096      2849.0904      3.4033276e+08  0.5            31155000       0              0              0              0
Averages over the last 251 of 501 rows, steps 62355000 to 62405000:
Temp Press PotEng Density KinEng TotEng Lx Ly Lz Xlo Xhi Ylo Yhi Zlo Zhi Volume Dt
277160 1899.62 -4.4064e+07 1.76621 825335 -4.32387e+07 698.181 698.181 698.181 2150.91 2849.09 2150.91 2849.09 2150.91 2849.09 3.40333e+08 0.5
Loop time of 6.66312 on 8 procs for 100000 steps with 1000 atoms

unfix 2

fix 3 all nvt temp 370000 370000 $(100.0*dt) #iso 1.0 1.0 $(1000.0*dt)
fix 3 all nvt temp 370000 370000 50

run 200000
Generated 0 of 1 mixed pair_coeff terms from geometric mixing rule
Step          Temp          Press          PotEng        Density         KinEng         TotEng           Lx             Ly             Lz            Xlo            Xhi            Ylo            Yhi            Zlo            Zhi           Volume           Dt            Time           CPU           T/CPU          S/CPU         CPULeft
62405000   358780.46      2357.2016     -43851165       1.766213       1068387       -42782778       698.18083      698.18083      698.18083      2150.9096      2849.0904      2150.9096      2849.0904      2150.9096      2849.0904      3.4033276e+08  0.5            31205000       0              0              0              0
Averages over the last 501 of 1001 rows, steps 62505000 to 62605000:
Temp Press PotEng Density KinEng TotEng Lx Ly Lz Xlo Xhi Ylo Yhi Zlo Zhi Volume Dt
370203 2239.51 -4.38183e+07 1.76621 1.1024e+06 -4.27159e+07 698.181 698.181 698.181 2150.91 2849.09 2150.91 2849.09 2150.91 2849.09 3.40333e+08 0.5
Loop time of 13.4368 on 8 procs for 200000 steps with 1000 atoms

unfix 3

fix 4 all nvt temp 370000 300 100.0

run 100000
Generated 0 of 1 mixed pair_coeff terms from geometric mixing rule
Step          Temp          Press          PotEng        Density         KinEng         TotEng           Lx             Ly             Lz            Xlo            Xhi            Ylo            Yhi            Zlo            Zhi           Volume           Dt            Time           CPU           T/CPU          S/CPU         CPULeft
62605000   380221.4       2305.4044     -43761507       1.766213       1132234.4     -42629273       698.18083      698.18083      698.18083      2150.9096      2849.0904      2150.9096      2849.0904      2150.9096      2849.0904      3.4033276e+08  0.5            31305000       0              0              0              0
Averages over the last 251 of 501 rows, steps 62655000 to 62705000:
Temp Press PotEng Density KinEng TotEng Lx Ly Lz Xlo Xhi Ylo Yhi Zlo Zhi Volume Dt
93086.5 633.534 -4.45693e+07 1.76621 277196 -4.42921e+07 698.181 698.181 698.181 2150.91 2849.09 2150.91 2849.09 2150.91 2849.09 3.40333e+08 0.5
Loop time of 6.65021 on 8 procs for 100000 steps with 1000 atoms

unfix 4

fix 5 all npt temp 300 300 $(100.0*dt) iso 1.0 1.0 $(1000.0*dt)
fix 5 all npt temp 300 300 50 iso 1.0 1.0 $(1000.0*dt)
fix 5 all npt temp 300 300 50 iso 1.0 1.0 500

run 300000
Generated 0 of 1 mixed pair_coeff terms from geometric mixing rule
Step          Temp          Press          PotEng        Density         KinEng         TotEng           Lx             Ly             Lz            Xlo            Xhi            Ylo            Yhi            Zlo            Zhi           Volume           Dt            Time           CPU           T/CPU          S/CPU         CPULeft
62705000   1388.3683      94.83957      -44748633       1.766213       4134.3236     -44744499       698.18083      698.18083      698.18083      2150.9096      2849.0904      2150.9096      2849.0904      2150.9096      2849.0904      3.4033276e+08  0.5            31355000       0              0              0              0
Averages over the last 751 of 1501 rows, steps 62855000 to 63005000:
Temp Press PotEng Density KinEng TotEng Lx Ly Lz Xlo Xhi Ylo Yhi Zlo Zhi Volume Dt
300.175 1.16217 -4.49033e+07 1.76558 893.868 -4.49024e+07 698.264 698.264 698.264 2150.87 2849.13 2150.87 2849.13 2150.87 2849.13 3.40455e+08 0.5
Loop time of 24.5926 on 8 procs for 300000 steps with 1000 atoms

# run_style
run_style verlet

# write restart
write_restart ./pgnpmf/300700/equpmf90.res
System init for write_restart ...
Generated 0 of 1 mixed pair_coeff terms from geometric mixing rule
