LAMMPS (23 Jun 2022 - Update 1)
# Read restart
read_restart ./pgnpmf/300700/equpmf82.res
Reading restart file ...
  restart file = 23 Jun 2022, LAMMPS = 23 Jun 2022
  restoring atom style atomic from restart
  orthogonal box = (2150.5053 2150.5053 2150.5053) to (2849.4947 2849.4947 2849.4947)
  restoring pair style table from restart
  1000 atoms
  read_restart CPU = 0.005 seconds

# Settings

pair_style table spline 9941

pair_coeff 1 1 ./pgnpmf/N20.txt DE_GNP 75.6
pair_coeff 2 2 ./pgnpmf/N100.txt DE_GNP 115.92
pair_coeff 1 2 ./pgnpmf/mixed_potential.txt DE_GNP 95.66

#Neigh_list Calc Frequency

neigh_modify delay 0 every 1 check yes

# Saving Frequency (50 frames)

variable ts_save equal 5000

# Dump
#dump_modify 1 first no sort id
#dump 2 all cfg 50000 ./equilibration/trajectory/ovito/dumpgen.tens_*.cfg mass type xs ys zs fx fy fz

# thermo_style
thermo_style custom step temp press pe density ke etotal lx ly lz xlo xhi ylo yhi zlo zhi vol dt time cpu tpcpu spcpu cpuremain

# run info
timestep 0.5
thermo 200

# fix

fix 1 all momentum 1000 linear 1 1 1 angular
variable T equal 300
fix 2 all nvt temp 300 370000 100.0

run 100000
Generated 0 of 1 mixed pair_coeff terms from geometric mixing rule
Unused restart file global fix info:
  fix style: npt, fix ID: 5
  update every 1 steps, delay 0 steps, check yes
Step          Temp          Press          PotEng        Density         KinEng         TotEng           Lx             Ly             Lz            Xlo            Xhi            Ylo            Yhi            Zlo            Zhi           Volume           Dt            Time           CPU           T/CPU          S/CPU         CPULeft
57405000   291.21871      4.7587638     -44766374       1.7600903      867.19958     -44765506       698.98946      698.98946      698.98946      2150.5053      2849.4947      2150.5053      2849.4947      2150.5053      2849.4947      3.4151665e+08  0.5            28705000       0              0              0              0
Averages over the last 251 of 501 rows, steps 57455000 to 57505000:
Temp Press PotEng Density KinEng TotEng Lx Ly Lz Xlo Xhi Ylo Yhi Zlo Zhi Volume Dt
277162 1860.5 -4.41031e+07 1.76009 825342 -4.32777e+07 698.989 698.989 698.989 2150.51 2849.49 2150.51 2849.49 2150.51 2849.49 3.41517e+08 0.5
Loop time of 6.87827 on 8 procs for 100000 steps with 1000 atoms

unfix 2

fix 3 all nvt temp 370000 370000 $(100.0*dt) #iso 1.0 1.0 $(1000.0*dt)
fix 3 all nvt temp 370000 370000 50

run 200000
Generated 0 of 1 mixed pair_coeff terms from geometric mixing rule
Step          Temp          Press          PotEng        Density         KinEng         TotEng           Lx             Ly             Lz            Xlo            Xhi            Ylo            Yhi            Zlo            Zhi           Volume           Dt            Time           CPU           T/CPU          S/CPU         CPULeft
57505000   378167.44      2383.0238     -43780648       1.7600903      1126118.1     -42654530       698.98946      698.98946      698.98946      2150.5053      2849.4947      2150.5053      2849.4947      2150.5053      2849.4947      3.4151665e+08  0.5            28755000       0              0              0              0
Averages over the last 501 of 1001 rows, steps 57605000 to 57705000:
Temp Press PotEng Density KinEng TotEng Lx Ly Lz Xlo Xhi Ylo Yhi Zlo Zhi Volume Dt
369875 2230.88 -4.37663e+07 1.76009 1.10142e+06 -4.26649e+07 698.989 698.989 698.989 2150.51 2849.49 2150.51 2849.49 2150.51 2849.49 3.41517e+08 0.5
Loop time of 13.0369 on 8 procs for 200000 steps with 1000 atoms

unfix 3

fix 4 all nvt temp 370000 300 100.0

run 100000
Generated 0 of 1 mixed pair_coeff terms from geometric mixing rule
Step          Temp          Press          PotEng        Density         KinEng         TotEng           Lx             Ly             Lz            Xlo            Xhi            Ylo            Yhi            Zlo            Zhi           Volume           Dt            Time           CPU           T/CPU          S/CPU         CPULeft
57705000   360396.1       2168.9572     -43903127       1.7600903      1073198.1     -42829929       698.98946      698.98946      698.98946      2150.5053      2849.4947      2150.5053      2849.4947      2150.5053      2849.4947      3.4151665e+08  0.5            28855000       0              0              0              0
Averages over the last 251 of 501 rows, steps 57755000 to 57805000:
Temp Press PotEng Density KinEng TotEng Lx Ly Lz Xlo Xhi Ylo Yhi Zlo Zhi Volume Dt
92996.7 513.799 -4.44868e+07 1.76009 276928 -4.42098e+07 698.989 698.989 698.989 2150.51 2849.49 2150.51 2849.49 2150.51 2849.49 3.41517e+08 0.5
Loop time of 6.5321 on 8 procs for 100000 steps with 1000 atoms

unfix 4

fix 5 all npt temp 300 300 $(100.0*dt) iso 1.0 1.0 $(1000.0*dt)
fix 5 all npt temp 300 300 50 iso 1.0 1.0 $(1000.0*dt)
fix 5 all npt temp 300 300 50 iso 1.0 1.0 500

run 300000
Generated 0 of 1 mixed pair_coeff terms from geometric mixing rule
Step          Temp          Press          PotEng        Density         KinEng         TotEng           Lx             Ly             Lz            Xlo            Xhi            Ylo            Yhi            Zlo            Zhi           Volume           Dt            Time           CPU           T/CPU          S/CPU         CPULeft
57805000   1373.9489     -52.589886     -44759277       1.7600903      4091.3851     -44755185       698.98946      698.98946      698.98946      2150.5053      2849.4947      2150.5053      2849.4947      2150.5053      2849.4947      3.4151665e+08  0.5            28905000       0              0              0              0
Averages over the last 751 of 1501 rows, steps 57955000 to 58105000:
Temp Press PotEng Density KinEng TotEng Lx Ly Lz Xlo Xhi Ylo Yhi Zlo Zhi Volume Dt
300.32 1.1187 -4.47431e+07 1.76327 894.301 -4.47422e+07 698.57 698.57 698.57 2150.72 2849.28 2150.72 2849.28 2150.72 2849.28 3.40902e+08 0.5
Loop time of 24.2608 on 8 procs for 300000 steps with 1000 atoms

# run_style
run_style verlet

# write restart
write_restart ./pgnpmf/300700/equpmf83.res
System init for write_restart ...
Generated 0 of 1 mixed pair_coeff terms from geometric mixing rule
