LAMMPS (23 Jun 2022 - Update 1)
# Read restart
read_restart ./pgnpmf/300700/equpmf53.res
Reading restart file ...
  restart file = 23 Jun 2022, LAMMPS = 23 Jun 2022
  restoring atom style atomic from restart
  orthogonal box = (2018.7373 2018.7373 2018.7373) to (2981.2627 2981.2627 2981.2627)
  restoring pair style table from restart
  1000 atoms
  read_restart CPU = 0.009 seconds

# Settings

pair_style table spline 9941

pair_coeff 1 1 ./pgnpmf/N20.txt DE_GNP 75.6
pair_coeff 2 2 ./pgnpmf/N100.txt DE_GNP 115.92
pair_coeff 1 2 ./pgnpmf/mixed_potential.txt DE_GNP 95.66

#Neigh_list Calc Frequency

neigh_modify delay 0 every 1 check yes

# Saving Frequency (50 frames)

variable ts_save equal 5000

# Dump
#dump_modify 1 first no sort id
#dump 2 all cfg 50000 ./equilibration/trajectory/ovito/dumpgen.tens_*.cfg mass type xs ys zs fx fy fz

# thermo_style
thermo_style custom step temp press pe density ke etotal lx ly lz xlo xhi ylo yhi zlo zhi vol dt time cpu tpcpu spcpu cpuremain

# run info
timestep 0.5
thermo 200

# fix

fix 1 all momentum 1000 linear 1 1 1 angular
variable T equal 300
fix 2 all nvt temp 300 370000 100.0

run 100000
Generated 0 of 1 mixed pair_coeff terms from geometric mixing rule
Unused restart file global fix info:
  fix style: npt, fix ID: 5
  update every 1 steps, delay 0 steps, check yes
Step          Temp          Press          PotEng        Density         KinEng         TotEng           Lx             Ly             Lz            Xlo            Xhi            Ylo            Yhi            Zlo            Zhi           Volume           Dt            Time           CPU           T/CPU          S/CPU         CPULeft
37105000   306.42775      0.89917202    -36959254       0.6740781      912.48952     -36958341       962.52541      962.52541      962.52541      2018.7373      2981.2627      2018.7373      2981.2627      2018.7373      2981.2627      8.9173665e+08  0.5            18555000       0              0              0              0
Averages over the last 251 of 501 rows, steps 37155000 to 37205000:
Temp Press PotEng Density KinEng TotEng Lx Ly Lz Xlo Xhi Ylo Yhi Zlo Zhi Volume Dt
277178 39.1128 -3.60366e+07 0.674078 825388 -3.52112e+07 962.525 962.525 962.525 2018.74 2981.26 2018.74 2981.26 2018.74 2981.26 8.91737e+08 0.5
Loop time of 8.60742 on 8 procs for 100000 steps with 1000 atoms

unfix 2

fix 3 all nvt temp 370000 370000 $(100.0*dt) #iso 1.0 1.0 $(1000.0*dt)
fix 3 all nvt temp 370000 370000 50

run 200000
Generated 0 of 1 mixed pair_coeff terms from geometric mixing rule
Step          Temp          Press          PotEng        Density         KinEng         TotEng           Lx             Ly             Lz            Xlo            Xhi            Ylo            Yhi            Zlo            Zhi           Volume           Dt            Time           CPU           T/CPU          S/CPU         CPULeft
37205000   384515.61      10.400985     -35327068       0.6740781      1145021.8     -34182047       962.52541      962.52541      962.52541      2018.7373      2981.2627      2018.7373      2981.2627      2018.7373      2981.2627      8.9173665e+08  0.5            18605000       0              0              0              0
Averages over the last 501 of 1001 rows, steps 37305000 to 37405000:
Temp Press PotEng Density KinEng TotEng Lx Ly Lz Xlo Xhi Ylo Yhi Zlo Zhi Volume Dt
370004 23.2147 -3.5193e+07 0.674078 1.10181e+06 -3.40912e+07 962.525 962.525 962.525 2018.74 2981.26 2018.74 2981.26 2018.74 2981.26 8.91737e+08 0.5
Loop time of 16.9353 on 8 procs for 200000 steps with 1000 atoms

unfix 3

fix 4 all nvt temp 370000 300 100.0

run 100000
Generated 0 of 1 mixed pair_coeff terms from geometric mixing rule
Step          Temp          Press          PotEng        Density         KinEng         TotEng           Lx             Ly             Lz            Xlo            Xhi            Ylo            Yhi            Zlo            Zhi           Volume           Dt            Time           CPU           T/CPU          S/CPU         CPULeft
37405000   369387.13      44.094593     -35148124       0.6740781      1099971.8     -34048152       962.52541      962.52541      962.52541      2018.7373      2981.2627      2018.7373      2981.2627      2018.7373      2981.2627      8.9173665e+08  0.5            18705000       0              0              0              0
Averages over the last 251 of 501 rows, steps 37455000 to 37505000:
Temp Press PotEng Density KinEng TotEng Lx Ly Lz Xlo Xhi Ylo Yhi Zlo Zhi Volume Dt
93146.9 -145.244 -3.63552e+07 0.674078 277376 -3.60778e+07 962.525 962.525 962.525 2018.74 2981.26 2018.74 2981.26 2018.74 2981.26 8.91737e+08 0.5
Loop time of 8.49526 on 8 procs for 100000 steps with 1000 atoms

unfix 4

fix 5 all npt temp 300 300 $(100.0*dt) iso 1.0 1.0 $(1000.0*dt)
fix 5 all npt temp 300 300 50 iso 1.0 1.0 $(1000.0*dt)
fix 5 all npt temp 300 300 50 iso 1.0 1.0 500

run 300000
Generated 0 of 1 mixed pair_coeff terms from geometric mixing rule
Step          Temp          Press          PotEng        Density         KinEng         TotEng           Lx             Ly             Lz            Xlo            Xhi            Ylo            Yhi            Zlo            Zhi           Volume           Dt            Time           CPU           T/CPU          S/CPU         CPULeft
37505000   1363.388      -154.99312     -36920488       0.6740781      4059.9368     -36916428       962.52541      962.52541      962.52541      2018.7373      2981.2627      2018.7373      2981.2627      2018.7373      2981.2627      8.9173665e+08  0.5            18755000       0              0              0              0
Averages over the last 751 of 1501 rows, steps 37655000 to 37805000:
Temp Press PotEng Density KinEng TotEng Lx Ly Lz Xlo Xhi Ylo Yhi Zlo Zhi Volume Dt
307.852 1.02469 -3.74445e+07 0.694289 916.731 -3.74436e+07 953.096 953.096 953.096 2023.45 2976.55 2023.45 2976.55 2023.45 2976.55 8.65788e+08 0.5
Loop time of 31.09 on 8 procs for 300000 steps with 1000 atoms

# run_style
run_style verlet

# write restart
write_restart ./pgnpmf/300700/equpmf54.res
System init for write_restart ...
Generated 0 of 1 mixed pair_coeff terms from geometric mixing rule
