LAMMPS (23 Jun 2022 - Update 1)
# Read restart
read_restart ./pgnpmf/300700/equpmf17.res
Reading restart file ...
  restart file = 23 Jun 2022, LAMMPS = 23 Jun 2022
  restoring atom style atomic from restart
  orthogonal box = (1837.5534 1837.5534 1837.5534) to (3162.4466 3162.4466 3162.4466)
  restoring pair style table from restart
  1000 atoms
  read_restart CPU = 0.006 seconds

# Settings

pair_style table spline 9941

pair_coeff 1 1 ./pgnpmf/N20.txt DE_GNP 75.6
pair_coeff 2 2 ./pgnpmf/N100.txt DE_GNP 115.92
pair_coeff 1 2 ./pgnpmf/mixed_potential.txt DE_GNP 95.66

#Neigh_list Calc Frequency

neigh_modify delay 0 every 1 check yes

# Saving Frequency (50 frames)

variable ts_save equal 5000

# Dump
dump 1 all custom 5000 ./pgnpmf/300700/equilibration/trajectory/trajectory_1_1.equ.custom type x y z ix iy iz
dump_modify 1 first no sort id
#dump 2 all cfg 50000 ./equilibration/trajectory/ovito/dumpgen.tens_*.cfg mass type xs ys zs fx fy fz

# thermo_style
thermo_style custom step temp press pe density ke etotal lx ly lz xlo xhi ylo yhi zlo zhi vol dt time cpu tpcpu spcpu cpuremain

# run info
timestep 0.5
thermo 200

# fix

fix 1 all momentum 1000 linear 1 1 1 angular
variable T equal 300
fix 2 all nvt temp 300 370000 100.0

run 100000
Generated 0 of 1 mixed pair_coeff terms from geometric mixing rule
Unused restart file global fix info:
  fix style: npt, fix ID: 5
  update every 1 steps, delay 0 steps, check yes
Step          Temp          Press          PotEng        Density         KinEng         TotEng           Lx             Ly             Lz            Xlo            Xhi            Ylo            Yhi            Zlo            Zhi           Volume           Dt            Time           CPU           T/CPU          S/CPU         CPULeft
11905000   308.67277      1.1893702     -21617975       0.25846649     919.1748      -21617055       1324.8932      1324.8932      1324.8932      1837.5534      3162.4466      1837.5534      3162.4466      1837.5534      3162.4466      2.3256405e+09  0.5            5955000        0              0              0              0
Averages over the last 251 of 501 rows, steps 11955000 to 12005000:
Temp Press PotEng Density KinEng TotEng Lx Ly Lz Xlo Xhi Ylo Yhi Zlo Zhi Volume Dt
277658 11.1184 -2.11651e+07 0.258466 826817 -2.03383e+07 1324.89 1324.89 1324.89 1837.55 3162.45 1837.55 3162.45 1837.55 3162.45 2.32564e+09 0.5
Loop time of 8.04397 on 1 procs for 100000 steps with 1000 atoms

unfix 2

fix 3 all nvt temp 370000 370000 $(100.0*dt) #iso 1.0 1.0 $(1000.0*dt)
fix 3 all nvt temp 370000 370000 50

run 200000
Generated 0 of 1 mixed pair_coeff terms from geometric mixing rule
Step          Temp          Press          PotEng        Density         KinEng         TotEng           Lx             Ly             Lz            Xlo            Xhi            Ylo            Yhi            Zlo            Zhi           Volume           Dt            Time           CPU           T/CPU          S/CPU         CPULeft
12005000   367260.56     -6.2240256     -20639590       0.25846649     1093639.2     -19545951       1324.8932      1324.8932      1324.8932      1837.5534      3162.4466      1837.5534      3162.4466      1837.5534      3162.4466      2.3256405e+09  0.5            6005000        0              0              0              0
Averages over the last 501 of 1001 rows, steps 12105000 to 12205000:
Temp Press PotEng Density KinEng TotEng Lx Ly Lz Xlo Xhi Ylo Yhi Zlo Zhi Volume Dt
370022 9.56564 -2.03604e+07 0.258466 1.10186e+06 -1.92585e+07 1324.89 1324.89 1324.89 1837.55 3162.45 1837.55 3162.45 1837.55 3162.45 2.32564e+09 0.5
Loop time of 16.0704 on 1 procs for 200000 steps with 1000 atoms

unfix 3

fix 4 all nvt temp 370000 300 100.0

run 100000
Generated 0 of 1 mixed pair_coeff terms from geometric mixing rule
Step          Temp          Press          PotEng        Density         KinEng         TotEng           Lx             Ly             Lz            Xlo            Xhi            Ylo            Yhi            Zlo            Zhi           Volume           Dt            Time           CPU           T/CPU          S/CPU         CPULeft
12205000   381030.67     -7.1635177     -20548511       0.25846649     1134644.3     -19413867       1324.8932      1324.8932      1324.8932      1837.5534      3162.4466      1837.5534      3162.4466      1837.5534      3162.4466      2.3256405e+09  0.5            6105000        0              0              0              0
Averages over the last 251 of 501 rows, steps 12255000 to 12305000:
Temp Press PotEng Density KinEng TotEng Lx Ly Lz Xlo Xhi Ylo Yhi Zlo Zhi Volume Dt
93137.4 -19.7191 -2.17357e+07 0.258466 277347 -2.14584e+07 1324.89 1324.89 1324.89 1837.55 3162.45 1837.55 3162.45 1837.55 3162.45 2.32564e+09 0.5
Loop time of 8.11391 on 1 procs for 100000 steps with 1000 atoms

unfix 4

fix 5 all npt temp 300 300 $(100.0*dt) iso 1.0 1.0 $(1000.0*dt)
fix 5 all npt temp 300 300 50 iso 1.0 1.0 $(1000.0*dt)
fix 5 all npt temp 300 300 50 iso 1.0 1.0 500

run 300000
Generated 0 of 1 mixed pair_coeff terms from geometric mixing rule
Step          Temp          Press          PotEng        Density         KinEng         TotEng           Lx             Ly             Lz            Xlo            Xhi            Ylo            Yhi            Zlo            Zhi           Volume           Dt            Time           CPU           T/CPU          S/CPU         CPULeft
12305000   1360.9257     -31.566652     -22148489       0.25846649     4052.6042     -22144436       1324.8932      1324.8932      1324.8932      1837.5534      3162.4466      1837.5534      3162.4466      1837.5534      3162.4466      2.3256405e+09  0.5            6155000        0              0              0              0
Averages over the last 751 of 1501 rows, steps 12455000 to 12605000:
Temp Press PotEng Density KinEng TotEng Lx Ly Lz Xlo Xhi Ylo Yhi Zlo Zhi Volume Dt
308.942 0.977324 -2.2556e+07 0.267433 919.977 -2.25551e+07 1309.92 1309.92 1309.92 1845.04 3154.96 1845.04 3154.96 1845.04 3154.96 2.24769e+09 0.5
Loop time of 31.62 on 1 procs for 300000 steps with 1000 atoms

# run_style
run_style verlet

# write restart
write_restart ./pgnpmf/300700/equpmf18.res
System init for write_restart ...
Generated 0 of 1 mixed pair_coeff terms from geometric mixing rule
