LAMMPS (23 Jun 2022 - Update 1)
# Read restart
read_restart ./pgnpmf/300700/equpmf48.res
Reading restart file ...
  restart file = 23 Jun 2022, LAMMPS = 23 Jun 2022
  restoring atom style atomic from restart
  orthogonal box = (1994.4849 1994.4849 1994.4849) to (3005.5151 3005.5151 3005.5151)
  restoring pair style table from restart
  1000 atoms
  read_restart CPU = 0.009 seconds

# Settings

pair_style table spline 9941

pair_coeff 1 1 ./pgnpmf/N20.txt DE_GNP 75.6
pair_coeff 2 2 ./pgnpmf/N100.txt DE_GNP 115.92
pair_coeff 1 2 ./pgnpmf/mixed_potential.txt DE_GNP 95.66

#Neigh_list Calc Frequency

neigh_modify delay 0 every 1 check yes

# Saving Frequency (50 frames)

variable ts_save equal 5000

# Dump
#dump_modify 1 first no sort id
#dump 2 all cfg 50000 ./equilibration/trajectory/ovito/dumpgen.tens_*.cfg mass type xs ys zs fx fy fz

# thermo_style
thermo_style custom step temp press pe density ke etotal lx ly lz xlo xhi ylo yhi zlo zhi vol dt time cpu tpcpu spcpu cpuremain

# run info
timestep 0.5
thermo 200

# fix

fix 1 all momentum 1000 linear 1 1 1 angular
variable T equal 300
fix 2 all nvt temp 300 370000 100.0

run 100000
Generated 0 of 1 mixed pair_coeff terms from geometric mixing rule
Unused restart file global fix info:
  fix style: npt, fix ID: 5
  update every 1 steps, delay 0 steps, check yes
Step          Temp          Press          PotEng        Density         KinEng         TotEng           Lx             Ly             Lz            Xlo            Xhi            Ylo            Yhi            Zlo            Zhi           Volume           Dt            Time           CPU           T/CPU          S/CPU         CPULeft
33605000   305.1665       1.8746127     -35892955       0.58164008     908.73374     -35892047       1011.0303      1011.0303      1011.0303      1994.4849      3005.5151      1994.4849      3005.5151      1994.4849      3005.5151      1.0334572e+09  0.5            16805000       0              0              0              0
Averages over the last 251 of 501 rows, steps 33655000 to 33705000:
Temp Press PotEng Density KinEng TotEng Lx Ly Lz Xlo Xhi Ylo Yhi Zlo Zhi Volume Dt
277560 11.3672 -3.51542e+07 0.58164 826527 -3.43277e+07 1011.03 1011.03 1011.03 1994.48 3005.52 1994.48 3005.52 1994.48 3005.52 1.03346e+09 0.5
Loop time of 12.0818 on 1 procs for 100000 steps with 1000 atoms

unfix 2

fix 3 all nvt temp 370000 370000 $(100.0*dt) #iso 1.0 1.0 $(1000.0*dt)
fix 3 all nvt temp 370000 370000 50

run 200000
Generated 0 of 1 mixed pair_coeff terms from geometric mixing rule
Step          Temp          Press          PotEng        Density         KinEng         TotEng           Lx             Ly             Lz            Xlo            Xhi            Ylo            Yhi            Zlo            Zhi           Volume           Dt            Time           CPU           T/CPU          S/CPU         CPULeft
33705000   358699.35     -54.053408     -34918263       0.58164008     1068145.4     -33850118       1011.0303      1011.0303      1011.0303      1994.4849      3005.5151      1994.4849      3005.5151      1994.4849      3005.5151      1.0334572e+09  0.5            16855000       0              0              0              0
Averages over the last 501 of 1001 rows, steps 33805000 to 33905000:
Temp Press PotEng Density KinEng TotEng Lx Ly Lz Xlo Xhi Ylo Yhi Zlo Zhi Volume Dt
369627 22.0852 -3.43714e+07 0.58164 1.10069e+06 -3.32707e+07 1011.03 1011.03 1011.03 1994.48 3005.52 1994.48 3005.52 1994.48 3005.52 1.03346e+09 0.5
Loop time of 24.3178 on 1 procs for 200000 steps with 1000 atoms

unfix 3

fix 4 all nvt temp 370000 300 100.0

run 100000
Generated 0 of 1 mixed pair_coeff terms from geometric mixing rule
Step          Temp          Press          PotEng        Density         KinEng         TotEng           Lx             Ly             Lz            Xlo            Xhi            Ylo            Yhi            Zlo            Zhi           Volume           Dt            Time           CPU           T/CPU          S/CPU         CPULeft
33905000   382457.32      8.1430915     -34337527       0.58164008     1138892.6     -33198634       1011.0303      1011.0303      1011.0303      1994.4849      3005.5151      1994.4849      3005.5151      1994.4849      3005.5151      1.0334572e+09  0.5            16955000       0              0              0              0
Averages over the last 251 of 501 rows, steps 33955000 to 34005000:
Temp Press PotEng Density KinEng TotEng Lx Ly Lz Xlo Xhi Ylo Yhi Zlo Zhi Volume Dt
93086.6 -90.2521 -3.55686e+07 0.58164 277196 -3.52914e+07 1011.03 1011.03 1011.03 1994.48 3005.52 1994.48 3005.52 1994.48 3005.52 1.03346e+09 0.5
Loop time of 12.0814 on 1 procs for 100000 steps with 1000 atoms

unfix 4

fix 5 all npt temp 300 300 $(100.0*dt) iso 1.0 1.0 $(1000.0*dt)
fix 5 all npt temp 300 300 50 iso 1.0 1.0 $(1000.0*dt)
fix 5 all npt temp 300 300 50 iso 1.0 1.0 500

run 300000
Generated 0 of 1 mixed pair_coeff terms from geometric mixing rule
Step          Temp          Press          PotEng        Density         KinEng         TotEng           Lx             Ly             Lz            Xlo            Xhi            Ylo            Yhi            Zlo            Zhi           Volume           Dt            Time           CPU           T/CPU          S/CPU         CPULeft
34005000   1352.6759     -108.37814     -36075709       0.58164008     4028.0378     -36071680       1011.0303      1011.0303      1011.0303      1994.4849      3005.5151      1994.4849      3005.5151      1994.4849      3005.5151      1.0334572e+09  0.5            17005000       0              0              0              0
Averages over the last 751 of 1501 rows, steps 34155000 to 34305000:
Temp Press PotEng Density KinEng TotEng Lx Ly Lz Xlo Xhi Ylo Yhi Zlo Zhi Volume Dt
307.346 1.07249 -3.6344e+07 0.593402 915.225 -3.63431e+07 1004.31 1004.31 1004.31 1997.85 3002.15 1997.85 3002.15 1997.85 3002.15 1.01298e+09 0.5
Loop time of 43.4179 on 1 procs for 300000 steps with 1000 atoms

# run_style
run_style verlet

# write restart
write_restart ./pgnpmf/300700/equpmf49.res
System init for write_restart ...
Generated 0 of 1 mixed pair_coeff terms from geometric mixing rule
