LAMMPS (23 Jun 2022 - Update 1)
# Read restart
read_restart ./pgnpmf/300700/equpmf91.res
Reading restart file ...
  restart file = 23 Jun 2022, LAMMPS = 23 Jun 2022
  restoring atom style atomic from restart
  orthogonal box = (2151.0244 2151.0244 2151.0244) to (2848.9756 2848.9756 2848.9756)
  restoring pair style table from restart
  1000 atoms
  read_restart CPU = 0.009 seconds

# Settings

pair_style table spline 9941

pair_coeff 1 1 ./pgnpmf/N20.txt DE_GNP 75.6
pair_coeff 2 2 ./pgnpmf/N100.txt DE_GNP 115.92
pair_coeff 1 2 ./pgnpmf/mixed_potential.txt DE_GNP 95.66

#Neigh_list Calc Frequency

neigh_modify delay 0 every 1 check yes

# Saving Frequency (50 frames)

variable ts_save equal 5000

# Dump
#dump_modify 1 first no sort id
#dump 2 all cfg 50000 ./equilibration/trajectory/ovito/dumpgen.tens_*.cfg mass type xs ys zs fx fy fz

# thermo_style
thermo_style custom step temp press pe density ke etotal lx ly lz xlo xhi ylo yhi zlo zhi vol dt time cpu tpcpu spcpu cpuremain

# run info
timestep 0.5
thermo 200

# fix

fix 1 all momentum 1000 linear 1 1 1 angular
variable T equal 300
fix 2 all nvt temp 300 370000 100.0

run 100000
Generated 0 of 1 mixed pair_coeff terms from geometric mixing rule
Unused restart file global fix info:
  fix style: npt, fix ID: 5
  update every 1 steps, delay 0 steps, check yes
Step          Temp          Press          PotEng        Density         KinEng         TotEng           Lx             Ly             Lz            Xlo            Xhi            Ylo            Yhi            Zlo            Zhi           Volume           Dt            Time           CPU           T/CPU          S/CPU         CPULeft
63705000   299.38828      3.7201791     -45004105       1.7679562      891.52717     -45003214       697.95129      697.95129      697.95129      2151.0244      2848.9756      2151.0244      2848.9756      2151.0244      2848.9756      3.399972e+08   0.5            31855000       0              0              0              0
Averages over the last 251 of 501 rows, steps 63755000 to 63805000:
Temp Press PotEng Density KinEng TotEng Lx Ly Lz Xlo Xhi Ylo Yhi Zlo Zhi Volume Dt
277082 1908.41 -4.41918e+07 1.76796 825102 -4.33667e+07 697.951 697.951 697.951 2151.02 2848.98 2151.02 2848.98 2151.02 2848.98 3.39997e+08 0.5
Loop time of 6.69698 on 8 procs for 100000 steps with 1000 atoms

unfix 2

fix 3 all nvt temp 370000 370000 $(100.0*dt) #iso 1.0 1.0 $(1000.0*dt)
fix 3 all nvt temp 370000 370000 50

run 200000
Generated 0 of 1 mixed pair_coeff terms from geometric mixing rule
Step          Temp          Press          PotEng        Density         KinEng         TotEng           Lx             Ly             Lz            Xlo            Xhi            Ylo            Yhi            Zlo            Zhi           Volume           Dt            Time           CPU           T/CPU          S/CPU         CPULeft
63805000   362998.66      2419.1578     -43907034       1.7679562      1080948       -42826086       697.95129      697.95129      697.95129      2151.0244      2848.9756      2151.0244      2848.9756      2151.0244      2848.9756      3.399972e+08   0.5            31905000       0              0              0              0
Averages over the last 501 of 1001 rows, steps 63905000 to 64005000:
Temp Press PotEng Density KinEng TotEng Lx Ly Lz Xlo Xhi Ylo Yhi Zlo Zhi Volume Dt
370147 2288.41 -4.38933e+07 1.76796 1.10223e+06 -4.27911e+07 697.951 697.951 697.951 2151.02 2848.98 2151.02 2848.98 2151.02 2848.98 3.39997e+08 0.5
Loop time of 13.3148 on 8 procs for 200000 steps with 1000 atoms

unfix 3

fix 4 all nvt temp 370000 300 100.0

run 100000
Generated 0 of 1 mixed pair_coeff terms from geometric mixing rule
Step          Temp          Press          PotEng        Density         KinEng         TotEng           Lx             Ly             Lz            Xlo            Xhi            Ylo            Yhi            Zlo            Zhi           Volume           Dt            Time           CPU           T/CPU          S/CPU         CPULeft
64005000   359765.83      2238.2614     -43820643       1.7679562      1071321.2     -42749322       697.95129      697.95129      697.95129      2151.0244      2848.9756      2151.0244      2848.9756      2151.0244      2848.9756      3.399972e+08   0.5            32005000       0              0              0              0
Averages over the last 251 of 501 rows, steps 64055000 to 64105000:
Temp Press PotEng Density KinEng TotEng Lx Ly Lz Xlo Xhi Ylo Yhi Zlo Zhi Volume Dt
93074.2 571.167 -4.46176e+07 1.76796 277159 -4.43405e+07 697.951 697.951 697.951 2151.02 2848.98 2151.02 2848.98 2151.02 2848.98 3.39997e+08 0.5
Loop time of 6.57716 on 8 procs for 100000 steps with 1000 atoms

unfix 4

fix 5 all npt temp 300 300 $(100.0*dt) iso 1.0 1.0 $(1000.0*dt)
fix 5 all npt temp 300 300 50 iso 1.0 1.0 $(1000.0*dt)
fix 5 all npt temp 300 300 50 iso 1.0 1.0 500

run 300000
Generated 0 of 1 mixed pair_coeff terms from geometric mixing rule
Step          Temp          Press          PotEng        Density         KinEng         TotEng           Lx             Ly             Lz            Xlo            Xhi            Ylo            Yhi            Zlo            Zhi           Volume           Dt            Time           CPU           T/CPU          S/CPU         CPULeft
64105000   1376.275       36.756507     -44858832       1.7679562      4098.3119     -44854733       697.95129      697.95129      697.95129      2151.0244      2848.9756      2151.0244      2848.9756      2151.0244      2848.9756      3.399972e+08   0.5            32055000       0              0              0              0
Averages over the last 751 of 1501 rows, steps 64255000 to 64405000:
Temp Press PotEng Density KinEng TotEng Lx Ly Lz Xlo Xhi Ylo Yhi Zlo Zhi Volume Dt
300.142 0.776896 -4.50819e+07 1.76867 893.771 -4.5081e+07 697.858 697.858 697.858 2151.07 2848.93 2151.07 2848.93 2151.07 2848.93 3.3986e+08 0.5
Loop time of 24.1884 on 8 procs for 300000 steps with 1000 atoms

# run_style
run_style verlet

# write restart
write_restart ./pgnpmf/300700/equpmf92.res
System init for write_restart ...
Generated 0 of 1 mixed pair_coeff terms from geometric mixing rule
