LAMMPS (23 Jun 2022 - Update 1)
# Read restart
read_restart ./pgnpmf/300700/equpmf80.res
Reading restart file ...
  restart file = 23 Jun 2022, LAMMPS = 23 Jun 2022
  restoring atom style atomic from restart
  orthogonal box = (2150.3521 2150.3521 2150.3521) to (2849.6479 2849.6479 2849.6479)
  restoring pair style table from restart
  1000 atoms
  read_restart CPU = 0.006 seconds

# Settings

pair_style table spline 9941

pair_coeff 1 1 ./pgnpmf/N20.txt DE_GNP 75.6
pair_coeff 2 2 ./pgnpmf/N100.txt DE_GNP 115.92
pair_coeff 1 2 ./pgnpmf/mixed_potential.txt DE_GNP 95.66

#Neigh_list Calc Frequency

neigh_modify delay 0 every 1 check yes

# Saving Frequency (50 frames)

variable ts_save equal 5000

# Dump
#dump_modify 1 first no sort id
#dump 2 all cfg 50000 ./equilibration/trajectory/ovito/dumpgen.tens_*.cfg mass type xs ys zs fx fy fz

# thermo_style
thermo_style custom step temp press pe density ke etotal lx ly lz xlo xhi ylo yhi zlo zhi vol dt time cpu tpcpu spcpu cpuremain

# run info
timestep 0.5
thermo 200

# fix

fix 1 all momentum 1000 linear 1 1 1 angular
variable T equal 300
fix 2 all nvt temp 300 370000 100.0

run 100000
Generated 0 of 1 mixed pair_coeff terms from geometric mixing rule
Unused restart file global fix info:
  fix style: npt, fix ID: 5
  update every 1 steps, delay 0 steps, check yes
Step          Temp          Press          PotEng        Density         KinEng         TotEng           Lx             Ly             Lz            Xlo            Xhi            Ylo            Yhi            Zlo            Zhi           Volume           Dt            Time           CPU           T/CPU          S/CPU         CPULeft
56005000   308.64471      0.16606575    -44838608       1.7577787      919.09123     -44837689       699.29574      699.29574      699.29574      2150.3521      2849.6479      2150.3521      2849.6479      2150.3521      2849.6479      3.4196577e+08  0.5            28005000       0              0              0              0
Averages over the last 251 of 501 rows, steps 56055000 to 56105000:
Temp Press PotEng Density KinEng TotEng Lx Ly Lz Xlo Xhi Ylo Yhi Zlo Zhi Volume Dt
277309 1814.61 -4.40385e+07 1.75778 825780 -4.32127e+07 699.296 699.296 699.296 2150.35 2849.65 2150.35 2849.65 2150.35 2849.65 3.41966e+08 0.5
Loop time of 6.72193 on 8 procs for 100000 steps with 1000 atoms

unfix 2

fix 3 all nvt temp 370000 370000 $(100.0*dt) #iso 1.0 1.0 $(1000.0*dt)
fix 3 all nvt temp 370000 370000 50

run 200000
Generated 0 of 1 mixed pair_coeff terms from geometric mixing rule
Step          Temp          Press          PotEng        Density         KinEng         TotEng           Lx             Ly             Lz            Xlo            Xhi            Ylo            Yhi            Zlo            Zhi           Volume           Dt            Time           CPU           T/CPU          S/CPU         CPULeft
56105000   380188.72      2316.9724     -43708155       1.7577787      1132137.1     -42576018       699.29574      699.29574      699.29574      2150.3521      2849.6479      2150.3521      2849.6479      2150.3521      2849.6479      3.4196577e+08  0.5            28055000       0              0              0              0
Averages over the last 501 of 1001 rows, steps 56205000 to 56305000:
Temp Press PotEng Density KinEng TotEng Lx Ly Lz Xlo Xhi Ylo Yhi Zlo Zhi Volume Dt
369912 2247.46 -4.36218e+07 1.75778 1.10153e+06 -4.25203e+07 699.296 699.296 699.296 2150.35 2849.65 2150.35 2849.65 2150.35 2849.65 3.41966e+08 0.5
Loop time of 13.4388 on 8 procs for 200000 steps with 1000 atoms

unfix 3

fix 4 all nvt temp 370000 300 100.0

run 100000
Generated 0 of 1 mixed pair_coeff terms from geometric mixing rule
Step          Temp          Press          PotEng        Density         KinEng         TotEng           Lx             Ly             Lz            Xlo            Xhi            Ylo            Yhi            Zlo            Zhi           Volume           Dt            Time           CPU           T/CPU          S/CPU         CPULeft
56305000   358578.34      2197.2924     -43869371       1.7577787      1067785.1     -42801586       699.29574      699.29574      699.29574      2150.3521      2849.6479      2150.3521      2849.6479      2150.3521      2849.6479      3.4196577e+08  0.5            28155000       0              0              0              0
Averages over the last 251 of 501 rows, steps 56355000 to 56405000:
Temp Press PotEng Density KinEng TotEng Lx Ly Lz Xlo Xhi Ylo Yhi Zlo Zhi Volume Dt
92984.2 638.153 -4.43578e+07 1.75778 276891 -4.40809e+07 699.296 699.296 699.296 2150.35 2849.65 2150.35 2849.65 2150.35 2849.65 3.41966e+08 0.5
Loop time of 6.77438 on 8 procs for 100000 steps with 1000 atoms

unfix 4

fix 5 all npt temp 300 300 $(100.0*dt) iso 1.0 1.0 $(1000.0*dt)
fix 5 all npt temp 300 300 50 iso 1.0 1.0 $(1000.0*dt)
fix 5 all npt temp 300 300 50 iso 1.0 1.0 500

run 300000
Generated 0 of 1 mixed pair_coeff terms from geometric mixing rule
Step          Temp          Press          PotEng        Density         KinEng         TotEng           Lx             Ly             Lz            Xlo            Xhi            Ylo            Yhi            Zlo            Zhi           Volume           Dt            Time           CPU           T/CPU          S/CPU         CPULeft
56405000   1368.7561      74.58014      -44615184       1.7577787      4075.9221     -44611108       699.29574      699.29574      699.29574      2150.3521      2849.6479      2150.3521      2849.6479      2150.3521      2849.6479      3.4196577e+08  0.5            28205000       0              0              0              0
Averages over the last 751 of 1501 rows, steps 56555000 to 56705000:
Temp Press PotEng Density KinEng TotEng Lx Ly Lz Xlo Xhi Ylo Yhi Zlo Zhi Volume Dt
300.188 0.878636 -4.46031e+07 1.75612 893.91 -4.46022e+07 699.516 699.516 699.516 2150.24 2849.76 2150.24 2849.76 2150.24 2849.76 3.42289e+08 0.5
Loop time of 24.6775 on 8 procs for 300000 steps with 1000 atoms

# run_style
run_style verlet

# write restart
write_restart ./pgnpmf/300700/equpmf81.res
System init for write_restart ...
Generated 0 of 1 mixed pair_coeff terms from geometric mixing rule
