LAMMPS (23 Jun 2022 - Update 1)
# Read restart
read_restart ./pgnpmf/300700/equpmf41.res
Reading restart file ...
  restart file = 23 Jun 2022, LAMMPS = 23 Jun 2022
  restoring atom style atomic from restart
  orthogonal box = (1968.3834 1968.3834 1968.3834) to (3031.6166 3031.6166 3031.6166)
  restoring pair style table from restart
  1000 atoms
  read_restart CPU = 0.010 seconds

# Settings

pair_style table spline 9941

pair_coeff 1 1 ./pgnpmf/N20.txt DE_GNP 75.6
pair_coeff 2 2 ./pgnpmf/N100.txt DE_GNP 115.92
pair_coeff 1 2 ./pgnpmf/mixed_potential.txt DE_GNP 95.66

#Neigh_list Calc Frequency

neigh_modify delay 0 every 1 check yes

# Saving Frequency (50 frames)

variable ts_save equal 5000

# Dump
#dump_modify 1 first no sort id
#dump 2 all cfg 50000 ./equilibration/trajectory/ovito/dumpgen.tens_*.cfg mass type xs ys zs fx fy fz

# thermo_style
thermo_style custom step temp press pe density ke etotal lx ly lz xlo xhi ylo yhi zlo zhi vol dt time cpu tpcpu spcpu cpuremain

# run info
timestep 0.5
thermo 200

# fix

fix 1 all momentum 1000 linear 1 1 1 angular
variable T equal 300
fix 2 all nvt temp 300 370000 100.0

run 100000
Generated 0 of 1 mixed pair_coeff terms from geometric mixing rule
Unused restart file global fix info:
  fix style: npt, fix ID: 5
  update every 1 steps, delay 0 steps, check yes
Step          Temp          Press          PotEng        Density         KinEng         TotEng           Lx             Ly             Lz            Xlo            Xhi            Ylo            Yhi            Zlo            Zhi           Volume           Dt            Time           CPU           T/CPU          S/CPU         CPULeft
28705000   305.89134      2.0688091     -34805505       0.50010518     910.89219     -34804594       1063.2331      1063.2331      1063.2331      1968.3834      3031.6166      1968.3834      3031.6166      1968.3834      3031.6166      1.2019475e+09  0.5            14355000       0              0              0              0
Averages over the last 251 of 501 rows, steps 28755000 to 28805000:
Temp Press PotEng Density KinEng TotEng Lx Ly Lz Xlo Xhi Ylo Yhi Zlo Zhi Volume Dt
277045 17.6408 -3.42319e+07 0.500105 824991 -3.34069e+07 1063.23 1063.23 1063.23 1968.38 3031.62 1968.38 3031.62 1968.38 3031.62 1.20195e+09 0.5
Loop time of 11.7633 on 1 procs for 100000 steps with 1000 atoms

unfix 2

fix 3 all nvt temp 370000 370000 $(100.0*dt) #iso 1.0 1.0 $(1000.0*dt)
fix 3 all nvt temp 370000 370000 50

run 200000
Generated 0 of 1 mixed pair_coeff terms from geometric mixing rule
Step          Temp          Press          PotEng        Density         KinEng         TotEng           Lx             Ly             Lz            Xlo            Xhi            Ylo            Yhi            Zlo            Zhi           Volume           Dt            Time           CPU           T/CPU          S/CPU         CPULeft
28805000   368190.43     -41.430856     -33661651       0.50010518     1096408.2     -32565243       1063.2331      1063.2331      1063.2331      1968.3834      3031.6166      1968.3834      3031.6166      1968.3834      3031.6166      1.2019475e+09  0.5            14405000       0              0              0              0
Averages over the last 501 of 1001 rows, steps 28905000 to 29005000:
Temp Press PotEng Density KinEng TotEng Lx Ly Lz Xlo Xhi Ylo Yhi Zlo Zhi Volume Dt
369871 8.30657 -3.29384e+07 0.500105 1.10141e+06 -3.1837e+07 1063.23 1063.23 1063.23 1968.38 3031.62 1968.38 3031.62 1968.38 3031.62 1.20195e+09 0.5
Loop time of 23.4382 on 1 procs for 200000 steps with 1000 atoms

unfix 3

fix 4 all nvt temp 370000 300 100.0

run 100000
Generated 0 of 1 mixed pair_coeff terms from geometric mixing rule
Step          Temp          Press          PotEng        Density         KinEng         TotEng           Lx             Ly             Lz            Xlo            Xhi            Ylo            Yhi            Zlo            Zhi           Volume           Dt            Time           CPU           T/CPU          S/CPU         CPULeft
29005000   370928.3      -15.689394     -32943149       0.50010518     1104561.1     -31838588       1063.2331      1063.2331      1063.2331      1968.3834      3031.6166      1968.3834      3031.6166      1968.3834      3031.6166      1.2019475e+09  0.5            14505000       0              0              0              0
Averages over the last 251 of 501 rows, steps 29055000 to 29105000:
Temp Press PotEng Density KinEng TotEng Lx Ly Lz Xlo Xhi Ylo Yhi Zlo Zhi Volume Dt
93137.9 -85.417 -3.43144e+07 0.500105 277349 -3.40371e+07 1063.23 1063.23 1063.23 1968.38 3031.62 1968.38 3031.62 1968.38 3031.62 1.20195e+09 0.5
Loop time of 11.5604 on 1 procs for 100000 steps with 1000 atoms

unfix 4

fix 5 all npt temp 300 300 $(100.0*dt) iso 1.0 1.0 $(1000.0*dt)
fix 5 all npt temp 300 300 50 iso 1.0 1.0 $(1000.0*dt)
fix 5 all npt temp 300 300 50 iso 1.0 1.0 500

run 300000
Generated 0 of 1 mixed pair_coeff terms from geometric mixing rule
Step          Temp          Press          PotEng        Density         KinEng         TotEng           Lx             Ly             Lz            Xlo            Xhi            Ylo            Yhi            Zlo            Zhi           Volume           Dt            Time           CPU           T/CPU          S/CPU         CPULeft
29105000   1362.2064     -94.7131       -34827284       0.50010518     4056.418      -34823227       1063.2331      1063.2331      1063.2331      1968.3834      3031.6166      1968.3834      3031.6166      1968.3834      3031.6166      1.2019475e+09  0.5            14555000       0              0              0              0
Averages over the last 751 of 1501 rows, steps 29255000 to 29405000:
Temp Press PotEng Density KinEng TotEng Lx Ly Lz Xlo Xhi Ylo Yhi Zlo Zhi Volume Dt
307.151 1.00846 -3.52184e+07 0.510651 914.644 -3.52175e+07 1055.86 1055.86 1055.86 1972.07 3027.93 1972.07 3027.93 1972.07 3027.93 1.17713e+09 0.5
Loop time of 42.4071 on 1 procs for 300000 steps with 1000 atoms

# run_style
run_style verlet

# write restart
write_restart ./pgnpmf/300700/equpmf42.res
System init for write_restart ...
Generated 0 of 1 mixed pair_coeff terms from geometric mixing rule
