LAMMPS (23 Jun 2022 - Update 1)
# Read restart
read_restart ./pgnpmf/300700/equpmf22.res
Reading restart file ...
  restart file = 23 Jun 2022, LAMMPS = 23 Jun 2022
  restoring atom style atomic from restart
  orthogonal box = (1873.6407 1873.6407 1873.6407) to (3126.3593 3126.3593 3126.3593)
  restoring pair style table from restart
  1000 atoms
  read_restart CPU = 0.006 seconds

# Settings

pair_style table spline 9941

pair_coeff 1 1 ./pgnpmf/N20.txt DE_GNP 75.6
pair_coeff 2 2 ./pgnpmf/N100.txt DE_GNP 115.92
pair_coeff 1 2 ./pgnpmf/mixed_potential.txt DE_GNP 95.66

#Neigh_list Calc Frequency

neigh_modify delay 0 every 1 check yes

# Saving Frequency (50 frames)

variable ts_save equal 5000

# Dump
dump 1 all custom 5000 ./pgnpmf/300700/equilibration/trajectory/trajectory_1_1.equ.custom type x y z ix iy iz
dump_modify 1 first no sort id
#dump 2 all cfg 50000 ./equilibration/trajectory/ovito/dumpgen.tens_*.cfg mass type xs ys zs fx fy fz

# thermo_style
thermo_style custom step temp press pe density ke etotal lx ly lz xlo xhi ylo yhi zlo zhi vol dt time cpu tpcpu spcpu cpuremain

# run info
timestep 0.5
thermo 200

# fix

fix 1 all momentum 1000 linear 1 1 1 angular
variable T equal 300
fix 2 all nvt temp 300 370000 100.0

run 100000
Generated 0 of 1 mixed pair_coeff terms from geometric mixing rule
Unused restart file global fix info:
  fix style: npt, fix ID: 5
  update every 1 steps, delay 0 steps, check yes
Step          Temp          Press          PotEng        Density         KinEng         TotEng           Lx             Ly             Lz            Xlo            Xhi            Ylo            Yhi            Zlo            Zhi           Volume           Dt            Time           CPU           T/CPU          S/CPU         CPULeft
15405000   308.27264      0.64598875    -26064099       0.30576396     917.98327     -26063181       1252.7186      1252.7186      1252.7186      1873.6407      3126.3593      1873.6407      3126.3593      1873.6407      3126.3593      1.965896e+09   0.5            7705000        0              0              0              0
Averages over the last 251 of 501 rows, steps 15455000 to 15505000:
Temp Press PotEng Density KinEng TotEng Lx Ly Lz Xlo Xhi Ylo Yhi Zlo Zhi Volume Dt
277549 22.7573 -2.58425e+07 0.305764 826493 -2.5016e+07 1252.72 1252.72 1252.72 1873.64 3126.36 1873.64 3126.36 1873.64 3126.36 1.9659e+09 0.5
Loop time of 9.58088 on 1 procs for 100000 steps with 1000 atoms

unfix 2

fix 3 all nvt temp 370000 370000 $(100.0*dt) #iso 1.0 1.0 $(1000.0*dt)
fix 3 all nvt temp 370000 370000 50

run 200000
Generated 0 of 1 mixed pair_coeff terms from geometric mixing rule
Step          Temp          Press          PotEng        Density         KinEng         TotEng           Lx             Ly             Lz            Xlo            Xhi            Ylo            Yhi            Zlo            Zhi           Volume           Dt            Time           CPU           T/CPU          S/CPU         CPULeft
15505000   362426.89     -13.684024     -25498569       0.30576396     1079245.4     -24419323       1252.7186      1252.7186      1252.7186      1873.6407      3126.3593      1873.6407      3126.3593      1873.6407      3126.3593      1.965896e+09   0.5            7755000        0              0              0              0
Averages over the last 501 of 1001 rows, steps 15605000 to 15705000:
Temp Press PotEng Density KinEng TotEng Lx Ly Lz Xlo Xhi Ylo Yhi Zlo Zhi Volume Dt
369957 14.1736 -2.57282e+07 0.305764 1.10167e+06 -2.46265e+07 1252.72 1252.72 1252.72 1873.64 3126.36 1873.64 3126.36 1873.64 3126.36 1.9659e+09 0.5
Loop time of 19.5896 on 1 procs for 200000 steps with 1000 atoms

unfix 3

fix 4 all nvt temp 370000 300 100.0

run 100000
Generated 0 of 1 mixed pair_coeff terms from geometric mixing rule
Step          Temp          Press          PotEng        Density         KinEng         TotEng           Lx             Ly             Lz            Xlo            Xhi            Ylo            Yhi            Zlo            Zhi           Volume           Dt            Time           CPU           T/CPU          S/CPU         CPULeft
15705000   362284.13      11.609276     -25831005       0.30576396     1078820.3     -24752185       1252.7186      1252.7186      1252.7186      1873.6407      3126.3593      1873.6407      3126.3593      1873.6407      3126.3593      1.965896e+09   0.5            7855000        0              0              0              0
Averages over the last 251 of 501 rows, steps 15755000 to 15805000:
Temp Press PotEng Density KinEng TotEng Lx Ly Lz Xlo Xhi Ylo Yhi Zlo Zhi Volume Dt
92936.7 -24.0844 -2.68694e+07 0.305764 276750 -2.65927e+07 1252.72 1252.72 1252.72 1873.64 3126.36 1873.64 3126.36 1873.64 3126.36 1.9659e+09 0.5
Loop time of 9.87843 on 1 procs for 100000 steps with 1000 atoms

unfix 4

fix 5 all npt temp 300 300 $(100.0*dt) iso 1.0 1.0 $(1000.0*dt)
fix 5 all npt temp 300 300 50 iso 1.0 1.0 $(1000.0*dt)
fix 5 all npt temp 300 300 50 iso 1.0 1.0 500

run 300000
Generated 0 of 1 mixed pair_coeff terms from geometric mixing rule
Step          Temp          Press          PotEng        Density         KinEng         TotEng           Lx             Ly             Lz            Xlo            Xhi            Ylo            Yhi            Zlo            Zhi           Volume           Dt            Time           CPU           T/CPU          S/CPU         CPULeft
15805000   1363.8766     -32.585501     -27335422       0.30576396     4061.3918     -27331360       1252.7186      1252.7186      1252.7186      1873.6407      3126.3593      1873.6407      3126.3593      1873.6407      3126.3593      1.965896e+09   0.5            7905000        0              0              0              0
Averages over the last 751 of 1501 rows, steps 15955000 to 16105000:
Temp Press PotEng Density KinEng TotEng Lx Ly Lz Xlo Xhi Ylo Yhi Zlo Zhi Volume Dt
307.403 1.01407 -2.77071e+07 0.311524 915.393 -2.77062e+07 1244.95 1244.95 1244.95 1877.52 3122.48 1877.52 3122.48 1877.52 3122.48 1.92955e+09 0.5
Loop time of 36.7942 on 1 procs for 300000 steps with 1000 atoms

# run_style
run_style verlet

# write restart
write_restart ./pgnpmf/300700/equpmf23.res
System init for write_restart ...
Generated 0 of 1 mixed pair_coeff terms from geometric mixing rule
