LAMMPS (23 Jun 2022 - Update 1)
# Read restart
read_restart ./pgnpmf/55/equpmf19.res
Reading restart file ...
  restart file = 23 Jun 2022, LAMMPS = 23 Jun 2022
  restoring atom style atomic from restart
  orthogonal box = (2011.0919 2011.0919 2011.0919) to (2988.9081 2988.9081 2988.9081)
  restoring pair style table from restart
  1000 atoms
  read_restart CPU = 0.004 seconds

# Settings

pair_style table spline 9941

pair_coeff 1 1 ./pgnpmf/N20.txt DE_GNP 75.6
pair_coeff 2 2 ./pgnpmf/N100.txt DE_GNP 115.92
pair_coeff 1 2 ./pgnpmf/mixed_potential.txt DE_GNP 95.66

#Neigh_list Calc Frequency

neigh_modify delay 0 every 1 check yes

# Saving Frequency (50 frames)

variable ts_save equal 5000

# Dump
#dump_modify 1 first no sort id
dump 2 all cfg 50000 ./pgnpmf/55/equilibration/trajectory/dumpgen.tens_*.cfg mass type xs ys zs fx fy fz
dump_modify 2 element N20 N100

# thermo_style
thermo_style custom step temp press pe density ke etotal lx ly lz xlo xhi ylo yhi zlo zhi vol dt time cpu tpcpu spcpu cpuremain

# run info
timestep 0.5
thermo 200

# fix

fix 1 all momentum 1000 linear 1 1 1 angular
variable T equal 300
fix 2 all nvt temp 300 370000 100.0

run 100000
Generated 0 of 1 mixed pair_coeff terms from geometric mixing rule
Unused restart file global fix info:
  fix style: npt, fix ID: 5
  update every 1 steps, delay 0 steps, check yes
Step          Temp          Press          PotEng        Density         KinEng         TotEng           Lx             Ly             Lz            Xlo            Xhi            Ylo            Yhi            Zlo            Zhi           Volume           Dt            Time           CPU           T/CPU          S/CPU         CPULeft
13710000   307.43103     -0.20559481    -24717532       0.57183029     915.47711     -24716617       977.8162       977.8162       977.8162       2011.0919      2988.9081      2011.0919      2988.9081      2011.0919      2988.9081      9.3491404e+08  0.5            7060000        0              0              0              0
Averages over the last 251 of 501 rows, steps 13760000 to 13810000:
Temp Press PotEng Density KinEng TotEng Lx Ly Lz Xlo Xhi Ylo Yhi Zlo Zhi Volume Dt
277424 20.5044 -2.42589e+07 0.57183 826121 -2.34328e+07 977.816 977.816 977.816 2011.09 2988.91 2011.09 2988.91 2011.09 2988.91 9.34914e+08 0.5
Loop time of 5.67234 on 4 procs for 100000 steps with 1000 atoms

unfix 2

fix 3 all nvt temp 370000 370000 $(100.0*dt) #iso 1.0 1.0 $(1000.0*dt)
fix 3 all nvt temp 370000 370000 50

run 200000
Generated 0 of 1 mixed pair_coeff terms from geometric mixing rule
Step          Temp          Press          PotEng        Density         KinEng         TotEng           Lx             Ly             Lz            Xlo            Xhi            Ylo            Yhi            Zlo            Zhi           Volume           Dt            Time           CPU           T/CPU          S/CPU         CPULeft
13810000   365809.77      27.113701     -23859103       0.57183029     1089319       -22769784       977.8162       977.8162       977.8162       2011.0919      2988.9081      2011.0919      2988.9081      2011.0919      2988.9081      9.3491404e+08  0.5            7110000        0              0              0              0
Averages over the last 501 of 1001 rows, steps 13910000 to 14010000:
Temp Press PotEng Density KinEng TotEng Lx Ly Lz Xlo Xhi Ylo Yhi Zlo Zhi Volume Dt
369979 18.7738 -2.30715e+07 0.57183 1.10173e+06 -2.19697e+07 977.816 977.816 977.816 2011.09 2988.91 2011.09 2988.91 2011.09 2988.91 9.34914e+08 0.5
Loop time of 11.2624 on 4 procs for 200000 steps with 1000 atoms

unfix 3

fix 4 all nvt temp 370000 300 100.0

run 100000
Generated 0 of 1 mixed pair_coeff terms from geometric mixing rule
Step          Temp          Press          PotEng        Density         KinEng         TotEng           Lx             Ly             Lz            Xlo            Xhi            Ylo            Yhi            Zlo            Zhi           Volume           Dt            Time           CPU           T/CPU          S/CPU         CPULeft
14010000   369909.81      33.977945     -23165211       0.57183029     1101528.2     -22063683       977.8162       977.8162       977.8162       2011.0919      2988.9081      2011.0919      2988.9081      2011.0919      2988.9081      9.3491404e+08  0.5            7210000        0              0              0              0
Averages over the last 251 of 501 rows, steps 14060000 to 14110000:
Temp Press PotEng Density KinEng TotEng Lx Ly Lz Xlo Xhi Ylo Yhi Zlo Zhi Volume Dt
93105.5 -71.749 -2.40878e+07 0.57183 277252 -2.38105e+07 977.816 977.816 977.816 2011.09 2988.91 2011.09 2988.91 2011.09 2988.91 9.34914e+08 0.5
Loop time of 5.56945 on 4 procs for 100000 steps with 1000 atoms

unfix 4

fix 5 all npt temp 300 300 $(100.0*dt) iso 1.0 1.0 $(1000.0*dt)
fix 5 all npt temp 300 300 50 iso 1.0 1.0 $(1000.0*dt)
fix 5 all npt temp 300 300 50 iso 1.0 1.0 500

run 300000
Generated 0 of 1 mixed pair_coeff terms from geometric mixing rule
Step          Temp          Press          PotEng        Density         KinEng         TotEng           Lx             Ly             Lz            Xlo            Xhi            Ylo            Yhi            Zlo            Zhi           Volume           Dt            Time           CPU           T/CPU          S/CPU         CPULeft
14110000   1368.1749     -111.3892      -24570875       0.57183029     4074.1913     -24566801       977.8162       977.8162       977.8162       2011.0919      2988.9081      2011.0919      2988.9081      2011.0919      2988.9081      9.3491404e+08  0.5            7260000        0              0              0              0
Averages over the last 751 of 1501 rows, steps 14260000 to 14410000:
Temp Press PotEng Density KinEng TotEng Lx Ly Lz Xlo Xhi Ylo Yhi Zlo Zhi Volume Dt
309.459 0.934879 -2.50083e+07 0.590413 921.517 -2.50073e+07 967.45 967.45 967.45 2016.28 2983.72 2016.28 2983.72 2016.28 2983.72 9.05495e+08 0.5
Loop time of 20.4901 on 4 procs for 300000 steps with 1000 atoms

# run_style
run_style verlet

# write restart
write_restart ./pgnpmf/55/equpmf20.res
System init for write_restart ...
Generated 0 of 1 mixed pair_coeff terms from geometric mixing rule
