LAMMPS (23 Jun 2022 - Update 1)
# Read restart
read_restart ./pgnpmf/55/equpmf12.res
Reading restart file ...
  restart file = 23 Jun 2022, LAMMPS = 23 Jun 2022
  restoring atom style atomic from restart
  orthogonal box = (1950.1753 1950.1753 1950.1753) to (3049.8247 3049.8247 3049.8247)
  restoring pair style table from restart
  1000 atoms
  read_restart CPU = 0.004 seconds

# Settings

pair_style table spline 9941

pair_coeff 1 1 ./pgnpmf/N20.txt DE_GNP 75.6
pair_coeff 2 2 ./pgnpmf/N100.txt DE_GNP 115.92
pair_coeff 1 2 ./pgnpmf/mixed_potential.txt DE_GNP 95.66

#Neigh_list Calc Frequency

neigh_modify delay 0 every 1 check yes

# Saving Frequency (50 frames)

variable ts_save equal 5000

# Dump
#dump_modify 1 first no sort id
dump 2 all cfg 50000 ./pgnpmf/55/equilibration/trajectory/dumpgen.tens_*.cfg mass type xs ys zs fx fy fz
dump_modify 2 element N20 N100

# thermo_style
thermo_style custom step temp press pe density ke etotal lx ly lz xlo xhi ylo yhi zlo zhi vol dt time cpu tpcpu spcpu cpuremain

# run info
timestep 0.5
thermo 200

# fix

fix 1 all momentum 1000 linear 1 1 1 angular
variable T equal 300
fix 2 all nvt temp 300 370000 100.0

run 100000
Generated 0 of 1 mixed pair_coeff terms from geometric mixing rule
Unused restart file global fix info:
  fix style: npt, fix ID: 5
  update every 1 steps, delay 0 steps, check yes
Step          Temp          Press          PotEng        Density         KinEng         TotEng           Lx             Ly             Lz            Xlo            Xhi            Ylo            Yhi            Zlo            Zhi           Volume           Dt            Time           CPU           T/CPU          S/CPU         CPULeft
8810000   309.04555      0.22252335    -19036280       0.40204629     920.28488     -19035360       1099.6494      1099.6494      1099.6494      1950.1753      3049.8247      1950.1753      3049.8247      1950.1753      3049.8247      1.3297279e+09  0.5            4610000        0              0              0              0
Averages over the last 251 of 501 rows, steps 8860000 to 8910000:
Temp Press PotEng Density KinEng TotEng Lx Ly Lz Xlo Xhi Ylo Yhi Zlo Zhi Volume Dt
277329 24.2563 -1.90309e+07 0.402046 825838 -1.82051e+07 1099.65 1099.65 1099.65 1950.18 3049.82 1950.18 3049.82 1950.18 3049.82 1.32973e+09 0.5
Loop time of 4.83316 on 4 procs for 100000 steps with 1000 atoms

unfix 2

fix 3 all nvt temp 370000 370000 $(100.0*dt) #iso 1.0 1.0 $(1000.0*dt)
fix 3 all nvt temp 370000 370000 50

run 200000
Generated 0 of 1 mixed pair_coeff terms from geometric mixing rule
Step          Temp          Press          PotEng        Density         KinEng         TotEng           Lx             Ly             Lz            Xlo            Xhi            Ylo            Yhi            Zlo            Zhi           Volume           Dt            Time           CPU           T/CPU          S/CPU         CPULeft
8910000   373078.08      28.053335     -18546521       0.40204629     1110962.8     -17435558       1099.6494      1099.6494      1099.6494      1950.1753      3049.8247      1950.1753      3049.8247      1950.1753      3049.8247      1.3297279e+09  0.5            4660000        0              0              0              0
Averages over the last 501 of 1001 rows, steps 9010000 to 9110000:
Temp Press PotEng Density KinEng TotEng Lx Ly Lz Xlo Xhi Ylo Yhi Zlo Zhi Volume Dt
369938 11.1224 -1.76278e+07 0.402046 1.10161e+06 -1.65261e+07 1099.65 1099.65 1099.65 1950.18 3049.82 1950.18 3049.82 1950.18 3049.82 1.32973e+09 0.5
Loop time of 9.9763 on 4 procs for 200000 steps with 1000 atoms

unfix 3

fix 4 all nvt temp 370000 300 100.0

run 100000
Generated 0 of 1 mixed pair_coeff terms from geometric mixing rule
Step          Temp          Press          PotEng        Density         KinEng         TotEng           Lx             Ly             Lz            Xlo            Xhi            Ylo            Yhi            Zlo            Zhi           Volume           Dt            Time           CPU           T/CPU          S/CPU         CPULeft
9110000   358577.11      1.2682828     -17809689       0.40204629     1067781.4     -16741908       1099.6494      1099.6494      1099.6494      1950.1753      3049.8247      1950.1753      3049.8247      1950.1753      3049.8247      1.3297279e+09  0.5            4760000        0              0              0              0
Averages over the last 251 of 501 rows, steps 9160000 to 9210000:
Temp Press PotEng Density KinEng TotEng Lx Ly Lz Xlo Xhi Ylo Yhi Zlo Zhi Volume Dt
93133.5 -49.9248 -1.88412e+07 0.402046 277336 -1.85638e+07 1099.65 1099.65 1099.65 1950.18 3049.82 1950.18 3049.82 1950.18 3049.82 1.32973e+09 0.5
Loop time of 4.93981 on 4 procs for 100000 steps with 1000 atoms

unfix 4

fix 5 all npt temp 300 300 $(100.0*dt) iso 1.0 1.0 $(1000.0*dt)
fix 5 all npt temp 300 300 50 iso 1.0 1.0 $(1000.0*dt)
fix 5 all npt temp 300 300 50 iso 1.0 1.0 500

run 300000
Generated 0 of 1 mixed pair_coeff terms from geometric mixing rule
Step          Temp          Press          PotEng        Density         KinEng         TotEng           Lx             Ly             Lz            Xlo            Xhi            Ylo            Yhi            Zlo            Zhi           Volume           Dt            Time           CPU           T/CPU          S/CPU         CPULeft
9210000   1367.8821     -68.65523      -19257260       0.40204629     4073.3194     -19253186       1099.6494      1099.6494      1099.6494      1950.1753      3049.8247      1950.1753      3049.8247      1950.1753      3049.8247      1.3297279e+09  0.5            4810000        0              0              0              0
Averages over the last 751 of 1501 rows, steps 9360000 to 9510000:
Temp Press PotEng Density KinEng TotEng Lx Ly Lz Xlo Xhi Ylo Yhi Zlo Zhi Volume Dt
312.365 1.04064 -1.98828e+07 0.427368 930.17 -1.98819e+07 1077.5 1077.5 1077.5 1961.25 3038.75 1961.25 3038.75 1961.25 3038.75 1.251e+09 0.5
Loop time of 18.3514 on 4 procs for 300000 steps with 1000 atoms

# run_style
run_style verlet

# write restart
write_restart ./pgnpmf/55/equpmf13.res
System init for write_restart ...
Generated 0 of 1 mixed pair_coeff terms from geometric mixing rule
