LAMMPS (23 Jun 2022 - Update 1)
# Read restart
read_restart ./pgnpmf/55/equpmf26.res
Reading restart file ...
  restart file = 23 Jun 2022, LAMMPS = 23 Jun 2022
  restoring atom style atomic from restart
  orthogonal box = (2049.7275 2049.7275 2049.7275) to (2950.2725 2950.2725 2950.2725)
  restoring pair style table from restart
  1000 atoms
  read_restart CPU = 0.004 seconds

# Settings

pair_style table spline 9941

pair_coeff 1 1 ./pgnpmf/N20.txt DE_GNP 75.6
pair_coeff 2 2 ./pgnpmf/N100.txt DE_GNP 115.92
pair_coeff 1 2 ./pgnpmf/mixed_potential.txt DE_GNP 95.66

#Neigh_list Calc Frequency

neigh_modify delay 0 every 1 check yes

# Saving Frequency (50 frames)

variable ts_save equal 5000

# Dump
#dump_modify 1 first no sort id
dump 2 all cfg 50000 ./pgnpmf/55/equilibration/trajectory/dumpgen.tens_*.cfg mass type xs ys zs fx fy fz
dump_modify 2 element N20 N100

# thermo_style
thermo_style custom step temp press pe density ke etotal lx ly lz xlo xhi ylo yhi zlo zhi vol dt time cpu tpcpu spcpu cpuremain

# run info
timestep 0.5
thermo 200

# fix

fix 1 all momentum 1000 linear 1 1 1 angular
variable T equal 300
fix 2 all nvt temp 300 370000 100.0

run 100000
Generated 0 of 1 mixed pair_coeff terms from geometric mixing rule
Unused restart file global fix info:
  fix style: npt, fix ID: 5
  update every 1 steps, delay 0 steps, check yes
Step          Temp          Press          PotEng        Density         KinEng         TotEng           Lx             Ly             Lz            Xlo            Xhi            Ylo            Yhi            Zlo            Zhi           Volume           Dt            Time           CPU           T/CPU          S/CPU         CPULeft
18610000   307.97832      2.0225358     -26735090       0.73201939     917.10684     -26734172       900.545        900.545        900.545        2049.7275      2950.2725      2049.7275      2950.2725      2049.7275      2950.2725      7.3032515e+08  0.5            9510000        0              0              0              0
Averages over the last 251 of 501 rows, steps 18660000 to 18710000:
Temp Press PotEng Density KinEng TotEng Lx Ly Lz Xlo Xhi Ylo Yhi Zlo Zhi Volume Dt
277801 30.3799 -2.62517e+07 0.732019 827245 -2.54244e+07 900.545 900.545 900.545 2049.73 2950.27 2049.73 2950.27 2049.73 2950.27 7.30325e+08 0.5
Loop time of 7.02498 on 4 procs for 100000 steps with 1000 atoms

unfix 2

fix 3 all nvt temp 370000 370000 $(100.0*dt) #iso 1.0 1.0 $(1000.0*dt)
fix 3 all nvt temp 370000 370000 50

run 200000
Generated 0 of 1 mixed pair_coeff terms from geometric mixing rule
Step          Temp          Press          PotEng        Density         KinEng         TotEng           Lx             Ly             Lz            Xlo            Xhi            Ylo            Yhi            Zlo            Zhi           Volume           Dt            Time           CPU           T/CPU          S/CPU         CPULeft
18710000   381379.8       35.374246     -25774602       0.73201939     1135683.9     -24638918       900.545        900.545        900.545        2049.7275      2950.2725      2049.7275      2950.2725      2049.7275      2950.2725      7.3032515e+08  0.5            9560000        0              0              0              0
Averages over the last 501 of 1001 rows, steps 18810000 to 18910000:
Temp Press PotEng Density KinEng TotEng Lx Ly Lz Xlo Xhi Ylo Yhi Zlo Zhi Volume Dt
370015 34.3887 -2.5131e+07 0.732019 1.10184e+06 -2.40292e+07 900.545 900.545 900.545 2049.73 2950.27 2049.73 2950.27 2049.73 2950.27 7.30325e+08 0.5
Loop time of 13.4801 on 4 procs for 200000 steps with 1000 atoms

unfix 3

fix 4 all nvt temp 370000 300 100.0

run 100000
Generated 0 of 1 mixed pair_coeff terms from geometric mixing rule
Step          Temp          Press          PotEng        Density         KinEng         TotEng           Lx             Ly             Lz            Xlo            Xhi            Ylo            Yhi            Zlo            Zhi           Volume           Dt            Time           CPU           T/CPU          S/CPU         CPULeft
18910000   355886.66      1.8983948     -25220717       0.73201939     1059769.7     -24160948       900.545        900.545        900.545        2049.7275      2950.2725      2049.7275      2950.2725      2049.7275      2950.2725      7.3032515e+08  0.5            9660000        0              0              0              0
Averages over the last 251 of 501 rows, steps 18960000 to 19010000:
Temp Press PotEng Density KinEng TotEng Lx Ly Lz Xlo Xhi Ylo Yhi Zlo Zhi Volume Dt
93096.4 -144.254 -2.62401e+07 0.732019 277225 -2.59629e+07 900.545 900.545 900.545 2049.73 2950.27 2049.73 2950.27 2049.73 2950.27 7.30325e+08 0.5
Loop time of 6.71228 on 4 procs for 100000 steps with 1000 atoms

unfix 4

fix 5 all npt temp 300 300 $(100.0*dt) iso 1.0 1.0 $(1000.0*dt)
fix 5 all npt temp 300 300 50 iso 1.0 1.0 $(1000.0*dt)
fix 5 all npt temp 300 300 50 iso 1.0 1.0 500

run 300000
Generated 0 of 1 mixed pair_coeff terms from geometric mixing rule
Step          Temp          Press          PotEng        Density         KinEng         TotEng           Lx             Ly             Lz            Xlo            Xhi            Ylo            Yhi            Zlo            Zhi           Volume           Dt            Time           CPU           T/CPU          S/CPU         CPULeft
19010000   1363.7563     -188.15325     -26696858       0.73201939     4061.0335     -26692797       900.545        900.545        900.545        2049.7275      2950.2725      2049.7275      2950.2725      2049.7275      2950.2725      7.3032515e+08  0.5            9710000        0              0              0              0
Averages over the last 751 of 1501 rows, steps 19160000 to 19310000:
Temp Press PotEng Density KinEng TotEng Lx Ly Lz Xlo Xhi Ylo Yhi Zlo Zhi Volume Dt
308.795 1.03393 -2.71706e+07 0.756217 919.538 -2.71697e+07 890.837 890.837 890.837 2054.58 2945.42 2054.58 2945.42 2054.58 2945.42 7.06961e+08 0.5
Loop time of 24.0097 on 4 procs for 300000 steps with 1000 atoms

# run_style
run_style verlet

# write restart
write_restart ./pgnpmf/55/equpmf27.res
System init for write_restart ...
Generated 0 of 1 mixed pair_coeff terms from geometric mixing rule
