LAMMPS (23 Jun 2022 - Update 1)
# Read restart
read_restart ./pgnpmf/55/equpmf31.res
Reading restart file ...
  restart file = 23 Jun 2022, LAMMPS = 23 Jun 2022
  restoring atom style atomic from restart
  orthogonal box = (2076.732 2076.732 2076.732) to (2923.268 2923.268 2923.268)
  restoring pair style table from restart
  1000 atoms
  read_restart CPU = 0.007 seconds

# Settings

pair_style table spline 9941

pair_coeff 1 1 ./pgnpmf/N20.txt DE_GNP 75.6
pair_coeff 2 2 ./pgnpmf/N100.txt DE_GNP 115.92
pair_coeff 1 2 ./pgnpmf/mixed_potential.txt DE_GNP 95.66

#Neigh_list Calc Frequency

neigh_modify delay 0 every 1 check yes

# Saving Frequency (50 frames)

variable ts_save equal 5000

# Dump
#dump_modify 1 first no sort id
dump 2 all cfg 50000 ./pgnpmf/55/equilibration/trajectory/dumpgen.tens_*.cfg mass type xs ys zs fx fy fz
dump_modify 2 element N20 N100

# thermo_style
thermo_style custom step temp press pe density ke etotal lx ly lz xlo xhi ylo yhi zlo zhi vol dt time cpu tpcpu spcpu cpuremain

# run info
timestep 0.5
thermo 200

# fix

fix 1 all momentum 1000 linear 1 1 1 angular
variable T equal 300
fix 2 all nvt temp 300 370000 100.0

run 100000
Generated 0 of 1 mixed pair_coeff terms from geometric mixing rule
Unused restart file global fix info:
  fix style: npt, fix ID: 5
  update every 1 steps, delay 0 steps, check yes
Step          Temp          Press          PotEng        Density         KinEng         TotEng           Lx             Ly             Lz            Xlo            Xhi            Ylo            Yhi            Zlo            Zhi           Volume           Dt            Time           CPU           T/CPU          S/CPU         CPULeft
22110000   307.10297      1.1815631     -27242378       0.88125703     914.5002      -27241464       846.53597      846.53597      846.53597      2076.732       2923.268       2076.732       2923.268       2076.732       2923.268       6.0664726e+08  0.5            11260000       0              0              0              0
Averages over the last 251 of 501 rows, steps 22160000 to 22210000:
Temp Press PotEng Density KinEng TotEng Lx Ly Lz Xlo Xhi Ylo Yhi Zlo Zhi Volume Dt
277242 71.5583 -2.68708e+07 0.881257 825578 -2.60452e+07 846.536 846.536 846.536 2076.73 2923.27 2076.73 2923.27 2076.73 2923.27 6.06647e+08 0.5
Loop time of 6.72593 on 4 procs for 100000 steps with 1000 atoms

unfix 2

fix 3 all nvt temp 370000 370000 $(100.0*dt) #iso 1.0 1.0 $(1000.0*dt)
fix 3 all nvt temp 370000 370000 50

run 200000
Generated 0 of 1 mixed pair_coeff terms from geometric mixing rule
Step          Temp          Press          PotEng        Density         KinEng         TotEng           Lx             Ly             Lz            Xlo            Xhi            Ylo            Yhi            Zlo            Zhi           Volume           Dt            Time           CPU           T/CPU          S/CPU         CPULeft
22210000   384005.56      1.6453473     -26450494       0.88125703     1143503       -25306991       846.53597      846.53597      846.53597      2076.732       2923.268       2076.732       2923.268       2076.732       2923.268       6.0664726e+08  0.5            11310000       0              0              0              0
Averages over the last 501 of 1001 rows, steps 22310000 to 22410000:
Temp Press PotEng Density KinEng TotEng Lx Ly Lz Xlo Xhi Ylo Yhi Zlo Zhi Volume Dt
370049 50.8598 -2.58738e+07 0.881257 1.10194e+06 -2.47718e+07 846.536 846.536 846.536 2076.73 2923.27 2076.73 2923.27 2076.73 2923.27 6.06647e+08 0.5
Loop time of 12.8667 on 4 procs for 200000 steps with 1000 atoms

unfix 3

fix 4 all nvt temp 370000 300 100.0

run 100000
Generated 0 of 1 mixed pair_coeff terms from geometric mixing rule
Step          Temp          Press          PotEng        Density         KinEng         TotEng           Lx             Ly             Lz            Xlo            Xhi            Ylo            Yhi            Zlo            Zhi           Volume           Dt            Time           CPU           T/CPU          S/CPU         CPULeft
22410000   374665.69     -13.835549     -25786244       0.88125703     1115690.4     -24670553       846.53597      846.53597      846.53597      2076.732       2923.268       2076.732       2923.268       2076.732       2923.268       6.0664726e+08  0.5            11410000       0              0              0              0
Averages over the last 251 of 501 rows, steps 22460000 to 22510000:
Temp Press PotEng Density KinEng TotEng Lx Ly Lz Xlo Xhi Ylo Yhi Zlo Zhi Volume Dt
93287.6 -232.074 -2.65777e+07 0.881257 277795 -2.62999e+07 846.536 846.536 846.536 2076.73 2923.27 2076.73 2923.27 2076.73 2923.27 6.06647e+08 0.5
Loop time of 6.36132 on 4 procs for 100000 steps with 1000 atoms

unfix 4

fix 5 all npt temp 300 300 $(100.0*dt) iso 1.0 1.0 $(1000.0*dt)
fix 5 all npt temp 300 300 50 iso 1.0 1.0 $(1000.0*dt)
fix 5 all npt temp 300 300 50 iso 1.0 1.0 500

run 300000
Generated 0 of 1 mixed pair_coeff terms from geometric mixing rule
Step          Temp          Press          PotEng        Density         KinEng         TotEng           Lx             Ly             Lz            Xlo            Xhi            Ylo            Yhi            Zlo            Zhi           Volume           Dt            Time           CPU           T/CPU          S/CPU         CPULeft
22510000   1359.7158     -255.22158     -27137032       0.88125703     4049.0013     -27132983       846.53597      846.53597      846.53597      2076.732       2923.268       2076.732       2923.268       2076.732       2923.268       6.0664726e+08  0.5            11460000       0              0              0              0
Averages over the last 751 of 1501 rows, steps 22660000 to 22810000:
Temp Press PotEng Density KinEng TotEng Lx Ly Lz Xlo Xhi Ylo Yhi Zlo Zhi Volume Dt
310.41 1.02703 -2.7599e+07 0.917072 924.347 -2.7598e+07 835.372 835.372 835.372 2082.31 2917.69 2082.31 2917.69 2082.31 2917.69 5.82963e+08 0.5
Loop time of 23.4726 on 4 procs for 300000 steps with 1000 atoms

# run_style
run_style verlet

# write restart
write_restart ./pgnpmf/55/equpmf32.res
System init for write_restart ...
Generated 0 of 1 mixed pair_coeff terms from geometric mixing rule
