LAMMPS (23 Jun 2022 - Update 1)
# Read restart
read_restart ./pgnpmf/55/equpmf50.res
Reading restart file ...
  restart file = 23 Jun 2022, LAMMPS = 23 Jun 2022
  restoring atom style atomic from restart
  orthogonal box = (2174.3586 2174.3586 2174.3586) to (2825.6414 2825.6414 2825.6414)
  restoring pair style table from restart
  1000 atoms
  read_restart CPU = 0.005 seconds

# Settings

pair_style table spline 9941

pair_coeff 1 1 ./pgnpmf/N20.txt DE_GNP 75.6
pair_coeff 2 2 ./pgnpmf/N100.txt DE_GNP 115.92
pair_coeff 1 2 ./pgnpmf/mixed_potential.txt DE_GNP 95.66

#Neigh_list Calc Frequency

neigh_modify delay 0 every 1 check yes

# Saving Frequency (50 frames)

variable ts_save equal 5000

# Dump
#dump_modify 1 first no sort id
dump 2 all cfg 50000 ./pgnpmf/55/equilibration/trajectory/dumpgen.tens_*.cfg mass type xs ys zs fx fy fz
dump_modify 2 element N20 N100

# thermo_style
thermo_style custom step temp press pe density ke etotal lx ly lz xlo xhi ylo yhi zlo zhi vol dt time cpu tpcpu spcpu cpuremain

# run info
timestep 0.5
thermo 200

# fix

fix 1 all momentum 1000 linear 1 1 1 angular
variable T equal 300
fix 2 all nvt temp 300 370000 100.0

run 100000
Generated 0 of 1 mixed pair_coeff terms from geometric mixing rule
Unused restart file global fix info:
  fix style: npt, fix ID: 5
  update every 1 steps, delay 0 steps, check yes
Step          Temp          Press          PotEng        Density         KinEng         TotEng           Lx             Ly             Lz            Xlo            Xhi            Ylo            Yhi            Zlo            Zhi           Volume           Dt            Time           CPU           T/CPU          S/CPU         CPULeft
35410000   303.19904     -0.74660991    -33263338       1.9352189      902.87496     -33262436       651.28276      651.28276      651.28276      2174.3586      2825.6414      2174.3586      2825.6414      2174.3586      2825.6414      2.7625411e+08  0.5            17910000       0              0              0              0
Averages over the last 251 of 501 rows, steps 35460000 to 35510000:
Temp Press PotEng Density KinEng TotEng Lx Ly Lz Xlo Xhi Ylo Yhi Zlo Zhi Volume Dt
277590 2511.75 -3.25549e+07 1.93522 826616 -3.17282e+07 651.283 651.283 651.283 2174.36 2825.64 2174.36 2825.64 2174.36 2825.64 2.76254e+08 0.5
Loop time of 8.37599 on 4 procs for 100000 steps with 1000 atoms

unfix 2

fix 3 all nvt temp 370000 370000 $(100.0*dt) #iso 1.0 1.0 $(1000.0*dt)
fix 3 all nvt temp 370000 370000 50

run 200000
Generated 0 of 1 mixed pair_coeff terms from geometric mixing rule
Step          Temp          Press          PotEng        Density         KinEng         TotEng           Lx             Ly             Lz            Xlo            Xhi            Ylo            Yhi            Zlo            Zhi           Volume           Dt            Time           CPU           T/CPU          S/CPU         CPULeft
35510000   358057.63      2964.6525     -32355774       1.9352189      1066234.5     -31289540       651.28276      651.28276      651.28276      2174.3586      2825.6414      2174.3586      2825.6414      2174.3586      2825.6414      2.7625411e+08  0.5            17960000       0              0              0              0
Averages over the last 501 of 1001 rows, steps 35610000 to 35710000:
Temp Press PotEng Density KinEng TotEng Lx Ly Lz Xlo Xhi Ylo Yhi Zlo Zhi Volume Dt
370165 2827.36 -3.22219e+07 1.93522 1.10229e+06 -3.11196e+07 651.283 651.283 651.283 2174.36 2825.64 2174.36 2825.64 2174.36 2825.64 2.76254e+08 0.5
Loop time of 16.8736 on 4 procs for 200000 steps with 1000 atoms

unfix 3

fix 4 all nvt temp 370000 300 100.0

run 100000
Generated 0 of 1 mixed pair_coeff terms from geometric mixing rule
Step          Temp          Press          PotEng        Density         KinEng         TotEng           Lx             Ly             Lz            Xlo            Xhi            Ylo            Yhi            Zlo            Zhi           Volume           Dt            Time           CPU           T/CPU          S/CPU         CPULeft
35710000   355554.57      2879.5914     -32199620       1.9352189      1058780.8     -31140839       651.28276      651.28276      651.28276      2174.3586      2825.6414      2174.3586      2825.6414      2174.3586      2825.6414      2.7625411e+08  0.5            18060000       0              0              0              0
Averages over the last 251 of 501 rows, steps 35760000 to 35810000:
Temp Press PotEng Density KinEng TotEng Lx Ly Lz Xlo Xhi Ylo Yhi Zlo Zhi Volume Dt
93164.2 792.693 -3.29713e+07 1.93522 277427 -3.26939e+07 651.283 651.283 651.283 2174.36 2825.64 2174.36 2825.64 2174.36 2825.64 2.76254e+08 0.5
Loop time of 8.34473 on 4 procs for 100000 steps with 1000 atoms

unfix 4

fix 5 all npt temp 300 300 $(100.0*dt) iso 1.0 1.0 $(1000.0*dt)
fix 5 all npt temp 300 300 50 iso 1.0 1.0 $(1000.0*dt)
fix 5 all npt temp 300 300 50 iso 1.0 1.0 500

run 300000
Generated 0 of 1 mixed pair_coeff terms from geometric mixing rule
Step          Temp          Press          PotEng        Density         KinEng         TotEng           Lx             Ly             Lz            Xlo            Xhi            Ylo            Yhi            Zlo            Zhi           Volume           Dt            Time           CPU           T/CPU          S/CPU         CPULeft
35810000   1386.2203      85.39832      -33248838       1.9352189      4127.9272     -33244710       651.28276      651.28276      651.28276      2174.3586      2825.6414      2174.3586      2825.6414      2174.3586      2825.6414      2.7625411e+08  0.5            18110000       0              0              0              0
Averages over the last 751 of 1501 rows, steps 35960000 to 36110000:
Temp Press PotEng Density KinEng TotEng Lx Ly Lz Xlo Xhi Ylo Yhi Zlo Zhi Volume Dt
300.369 1.12722 -3.32805e+07 1.93467 894.449 -3.32796e+07 651.344 651.344 651.344 2174.33 2825.67 2174.33 2825.67 2174.33 2825.67 2.76332e+08 0.5
Loop time of 28.8433 on 4 procs for 300000 steps with 1000 atoms

# run_style
run_style verlet

# write restart
write_restart ./pgnpmf/55/equpmf51.res
System init for write_restart ...
Generated 0 of 1 mixed pair_coeff terms from geometric mixing rule
