LAMMPS (23 Jun 2022 - Update 1)
# Read restart
read_restart ./pgnpmf/55/equpmf35.res
Reading restart file ...
  restart file = 23 Jun 2022, LAMMPS = 23 Jun 2022
  restoring atom style atomic from restart
  orthogonal box = (2105.5733 2105.5733 2105.5733) to (2894.4267 2894.4267 2894.4267)
  restoring pair style table from restart
  1000 atoms
  read_restart CPU = 0.007 seconds

# Settings

pair_style table spline 9941

pair_coeff 1 1 ./pgnpmf/N20.txt DE_GNP 75.6
pair_coeff 2 2 ./pgnpmf/N100.txt DE_GNP 115.92
pair_coeff 1 2 ./pgnpmf/mixed_potential.txt DE_GNP 95.66

#Neigh_list Calc Frequency

neigh_modify delay 0 every 1 check yes

# Saving Frequency (50 frames)

variable ts_save equal 5000

# Dump
#dump_modify 1 first no sort id
dump 2 all cfg 50000 ./pgnpmf/55/equilibration/trajectory/dumpgen.tens_*.cfg mass type xs ys zs fx fy fz
dump_modify 2 element N20 N100

# thermo_style
thermo_style custom step temp press pe density ke etotal lx ly lz xlo xhi ylo yhi zlo zhi vol dt time cpu tpcpu spcpu cpuremain

# run info
timestep 0.5
thermo 200

# fix

fix 1 all momentum 1000 linear 1 1 1 angular
variable T equal 300
fix 2 all nvt temp 300 370000 100.0

run 100000
Generated 0 of 1 mixed pair_coeff terms from geometric mixing rule
Unused restart file global fix info:
  fix style: npt, fix ID: 5
  update every 1 steps, delay 0 steps, check yes
Step          Temp          Press          PotEng        Density         KinEng         TotEng           Lx             Ly             Lz            Xlo            Xhi            Ylo            Yhi            Zlo            Zhi           Volume           Dt            Time           CPU           T/CPU          S/CPU         CPULeft
24910000   310.18247     -0.96661414    -28722264       1.0890549      923.67044     -28721341       788.85349      788.85349      788.85349      2105.5733      2894.4267      2105.5733      2894.4267      2105.5733      2894.4267      4.908955e+08   0.5            12660000       0              0              0              0
Averages over the last 251 of 501 rows, steps 24960000 to 25010000:
Temp Press PotEng Density KinEng TotEng Lx Ly Lz Xlo Xhi Ylo Yhi Zlo Zhi Volume Dt
277499 176.168 -2.83747e+07 1.08905 826344 -2.75484e+07 788.853 788.853 788.853 2105.57 2894.43 2105.57 2894.43 2105.57 2894.43 4.90896e+08 0.5
Loop time of 7.40549 on 4 procs for 100000 steps with 1000 atoms

unfix 2

fix 3 all nvt temp 370000 370000 $(100.0*dt) #iso 1.0 1.0 $(1000.0*dt)
fix 3 all nvt temp 370000 370000 50

run 200000
Generated 0 of 1 mixed pair_coeff terms from geometric mixing rule
Step          Temp          Press          PotEng        Density         KinEng         TotEng           Lx             Ly             Lz            Xlo            Xhi            Ylo            Yhi            Zlo            Zhi           Volume           Dt            Time           CPU           T/CPU          S/CPU         CPULeft
25010000   378418.93      97.932758     -27968259       1.0890549      1126866.9     -26841393       788.85349      788.85349      788.85349      2105.5733      2894.4267      2105.5733      2894.4267      2105.5733      2894.4267      4.908955e+08   0.5            12710000       0              0              0              0
Averages over the last 501 of 1001 rows, steps 25110000 to 25210000:
Temp Press PotEng Density KinEng TotEng Lx Ly Lz Xlo Xhi Ylo Yhi Zlo Zhi Volume Dt
369824 55.1161 -2.71798e+07 1.08905 1.10127e+06 -2.60786e+07 788.853 788.853 788.853 2105.57 2894.43 2105.57 2894.43 2105.57 2894.43 4.90896e+08 0.5
Loop time of 14.2445 on 4 procs for 200000 steps with 1000 atoms

unfix 3

fix 4 all nvt temp 370000 300 100.0

run 100000
Generated 0 of 1 mixed pair_coeff terms from geometric mixing rule
Step          Temp          Press          PotEng        Density         KinEng         TotEng           Lx             Ly             Lz            Xlo            Xhi            Ylo            Yhi            Zlo            Zhi           Volume           Dt            Time           CPU           T/CPU          S/CPU         CPULeft
25210000   375658.23      89.667727     -27200532       1.0890549      1118646       -26081886       788.85349      788.85349      788.85349      2105.5733      2894.4267      2105.5733      2894.4267      2105.5733      2894.4267      4.908955e+08   0.5            12810000       0              0              0              0
Averages over the last 251 of 501 rows, steps 25260000 to 25310000:
Temp Press PotEng Density KinEng TotEng Lx Ly Lz Xlo Xhi Ylo Yhi Zlo Zhi Volume Dt
93084 -361.275 -2.81527e+07 1.08905 277188 -2.78756e+07 788.853 788.853 788.853 2105.57 2894.43 2105.57 2894.43 2105.57 2894.43 4.90896e+08 0.5
Loop time of 7.00396 on 4 procs for 100000 steps with 1000 atoms

unfix 4

fix 5 all npt temp 300 300 $(100.0*dt) iso 1.0 1.0 $(1000.0*dt)
fix 5 all npt temp 300 300 50 iso 1.0 1.0 $(1000.0*dt)
fix 5 all npt temp 300 300 50 iso 1.0 1.0 500

run 300000
Generated 0 of 1 mixed pair_coeff terms from geometric mixing rule
Step          Temp          Press          PotEng        Density         KinEng         TotEng           Lx             Ly             Lz            Xlo            Xhi            Ylo            Yhi            Zlo            Zhi           Volume           Dt            Time           CPU           T/CPU          S/CPU         CPULeft
25310000   1362.5197     -458.5611      -28662595       1.0890549      4057.3511     -28658537       788.85349      788.85349      788.85349      2105.5733      2894.4267      2105.5733      2894.4267      2105.5733      2894.4267      4.908955e+08   0.5            12860000       0              0              0              0
Averages over the last 751 of 1501 rows, steps 25460000 to 25610000:
Temp Press PotEng Density KinEng TotEng Lx Ly Lz Xlo Xhi Ylo Yhi Zlo Zhi Volume Dt
310.723 0.985708 -2.92229e+07 1.14003 925.281 -2.9222e+07 776.919 776.919 776.919 2111.54 2888.46 2111.54 2888.46 2111.54 2888.46 4.68952e+08 0.5
Loop time of 24.8879 on 4 procs for 300000 steps with 1000 atoms

# run_style
run_style verlet

# write restart
write_restart ./pgnpmf/55/equpmf36.res
System init for write_restart ...
Generated 0 of 1 mixed pair_coeff terms from geometric mixing rule
