LAMMPS (23 Jun 2022 - Update 1)
# Read restart
read_restart ./pgnpmf/55/equpmf4.res
Reading restart file ...
  restart file = 23 Jun 2022, LAMMPS = 23 Jun 2022
  restoring atom style atomic from restart
  orthogonal box = (1702.1158 1702.1158 1702.1158) to (3297.8842 3297.8842 3297.8842)
  restoring pair style table from restart
  1000 atoms
  read_restart CPU = 0.007 seconds

# Settings

pair_style table spline 9941

pair_coeff 1 1 ./pgnpmf/N20.txt DE_GNP 75.6
pair_coeff 2 2 ./pgnpmf/N100.txt DE_GNP 115.92
pair_coeff 1 2 ./pgnpmf/mixed_potential.txt DE_GNP 95.66

#Neigh_list Calc Frequency

neigh_modify delay 0 every 1 check yes

# Saving Frequency (50 frames)

variable ts_save equal 5000

# Dump
#dump_modify 1 first no sort id
dump 2 all cfg 50000 ./pgnpmf/55/equilibration/trajectory/dumpgen.tens_*.cfg mass type xs ys zs fx fy fz
dump_modify 2 element N20 N100

# thermo_style
thermo_style custom step temp press pe density ke etotal lx ly lz xlo xhi ylo yhi zlo zhi vol dt time cpu tpcpu spcpu cpuremain

# run info
timestep 0.5
thermo 200

# fix

fix 1 all momentum 1000 linear 1 1 1 angular
variable T equal 300
fix 2 all nvt temp 300 370000 100.0

run 100000
Generated 0 of 1 mixed pair_coeff terms from geometric mixing rule
Unused restart file global fix info:
  fix style: npt, fix ID: 5
  update every 1 steps, delay 0 steps, check yes
Step          Temp          Press          PotEng        Density         KinEng         TotEng           Lx             Ly             Lz            Xlo            Xhi            Ylo            Yhi            Zlo            Zhi           Volume           Dt            Time           CPU           T/CPU          S/CPU         CPULeft
3210000   312.63522      1.3181813     -6235982.6      0.13156162     930.97429     -6235051.6      1595.7685      1595.7685      1595.7685      1702.1158      3297.8842      1702.1158      3297.8842      1702.1158      3297.8842      4.0635877e+09  0.5            1810000        0              0              0              0
Averages over the last 251 of 501 rows, steps 3260000 to 3310000:
Temp Press PotEng Density KinEng TotEng Lx Ly Lz Xlo Xhi Ylo Yhi Zlo Zhi Volume Dt
277494 5.24138 -6.04572e+06 0.131562 826330 -5.21939e+06 1595.77 1595.77 1595.77 1702.12 3297.88 1702.12 3297.88 1702.12 3297.88 4.06359e+09 0.5
Loop time of 2.9612 on 4 procs for 100000 steps with 1000 atoms

unfix 2

fix 3 all nvt temp 370000 370000 $(100.0*dt) #iso 1.0 1.0 $(1000.0*dt)
fix 3 all nvt temp 370000 370000 50

run 200000
Generated 0 of 1 mixed pair_coeff terms from geometric mixing rule
Step          Temp          Press          PotEng        Density         KinEng         TotEng           Lx             Ly             Lz            Xlo            Xhi            Ylo            Yhi            Zlo            Zhi           Volume           Dt            Time           CPU           T/CPU          S/CPU         CPULeft
3310000   363131.05      11.828075     -5859834.6      0.13156162     1081342.2     -4778492.3      1595.7685      1595.7685      1595.7685      1702.1158      3297.8842      1702.1158      3297.8842      1702.1158      3297.8842      4.0635877e+09  0.5            1860000        0              0              0              0
Averages over the last 501 of 1001 rows, steps 3410000 to 3510000:
Temp Press PotEng Density KinEng TotEng Lx Ly Lz Xlo Xhi Ylo Yhi Zlo Zhi Volume Dt
370126 7.28659 -5.52586e+06 0.131562 1.10217e+06 -4.42369e+06 1595.77 1595.77 1595.77 1702.12 3297.88 1702.12 3297.88 1702.12 3297.88 4.06359e+09 0.5
Loop time of 5.65811 on 4 procs for 200000 steps with 1000 atoms

unfix 3

fix 4 all nvt temp 370000 300 100.0

run 100000
Generated 0 of 1 mixed pair_coeff terms from geometric mixing rule
Step          Temp          Press          PotEng        Density         KinEng         TotEng           Lx             Ly             Lz            Xlo            Xhi            Ylo            Yhi            Zlo            Zhi           Volume           Dt            Time           CPU           T/CPU          S/CPU         CPULeft
3510000   366926.28      11.692762     -5707109.4      0.13156162     1092643.8     -4614465.6      1595.7685      1595.7685      1595.7685      1702.1158      3297.8842      1702.1158      3297.8842      1702.1158      3297.8842      4.0635877e+09  0.5            1960000        0              0              0              0
Averages over the last 251 of 501 rows, steps 3560000 to 3610000:
Temp Press PotEng Density KinEng TotEng Lx Ly Lz Xlo Xhi Ylo Yhi Zlo Zhi Volume Dt
92865.1 -5.99804 -6.41163e+06 0.131562 276536 -6.13509e+06 1595.77 1595.77 1595.77 1702.12 3297.88 1702.12 3297.88 1702.12 3297.88 4.06359e+09 0.5
Loop time of 2.81487 on 4 procs for 100000 steps with 1000 atoms

unfix 4

fix 5 all npt temp 300 300 $(100.0*dt) iso 1.0 1.0 $(1000.0*dt)
fix 5 all npt temp 300 300 50 iso 1.0 1.0 $(1000.0*dt)
fix 5 all npt temp 300 300 50 iso 1.0 1.0 500

run 300000
Generated 0 of 1 mixed pair_coeff terms from geometric mixing rule
Step          Temp          Press          PotEng        Density         KinEng         TotEng           Lx             Ly             Lz            Xlo            Xhi            Ylo            Yhi            Zlo            Zhi           Volume           Dt            Time           CPU           T/CPU          S/CPU         CPULeft
3610000   1350.6192     -13.214966     -6751169.1      0.13156162     4021.9132     -6747147.1      1595.7685      1595.7685      1595.7685      1702.1158      3297.8842      1702.1158      3297.8842      1702.1158      3297.8842      4.0635877e+09  0.5            2010000        0              0              0              0
Averages over the last 751 of 1501 rows, steps 3760000 to 3910000:
Temp Press PotEng Density KinEng TotEng Lx Ly Lz Xlo Xhi Ylo Yhi Zlo Zhi Volume Dt
311.921 1.0096 -7.27801e+06 0.154193 928.849 -7.27708e+06 1513.67 1513.67 1513.67 1743.16 3256.84 1743.16 3256.84 1743.16 3256.84 3.46863e+09 0.5
Loop time of 11.9023 on 4 procs for 300000 steps with 1000 atoms

# run_style
run_style verlet

# write restart
write_restart ./pgnpmf/55/equpmf5.res
System init for write_restart ...
Generated 0 of 1 mixed pair_coeff terms from geometric mixing rule
