LAMMPS (23 Jun 2022 - Update 1)
# Read restart
read_restart ./pgnpmf/55/equpmf59.res
Reading restart file ...
  restart file = 23 Jun 2022, LAMMPS = 23 Jun 2022
  restoring atom style atomic from restart
  orthogonal box = (2174.3752 2174.3752 2174.3752) to (2825.6248 2825.6248 2825.6248)
  restoring pair style table from restart
  1000 atoms
  read_restart CPU = 0.004 seconds

# Settings

pair_style table spline 9941

pair_coeff 1 1 ./pgnpmf/N20.txt DE_GNP 75.6
pair_coeff 2 2 ./pgnpmf/N100.txt DE_GNP 115.92
pair_coeff 1 2 ./pgnpmf/mixed_potential.txt DE_GNP 95.66

#Neigh_list Calc Frequency

neigh_modify delay 0 every 1 check yes

# Saving Frequency (50 frames)

variable ts_save equal 5000

# Dump
#dump_modify 1 first no sort id
dump 2 all cfg 50000 ./pgnpmf/55/equilibration/trajectory/dumpgen.tens_*.cfg mass type xs ys zs fx fy fz
dump_modify 2 element N20 N100

# thermo_style
thermo_style custom step temp press pe density ke etotal lx ly lz xlo xhi ylo yhi zlo zhi vol dt time cpu tpcpu spcpu cpuremain

# run info
timestep 0.5
thermo 200

# fix

fix 1 all momentum 1000 linear 1 1 1 angular
variable T equal 300
fix 2 all nvt temp 300 370000 100.0

run 100000
Generated 0 of 1 mixed pair_coeff terms from geometric mixing rule
Unused restart file global fix info:
  fix style: npt, fix ID: 5
  update every 1 steps, delay 0 steps, check yes
Step          Temp          Press          PotEng        Density         KinEng         TotEng           Lx             Ly             Lz            Xlo            Xhi            Ylo            Yhi            Zlo            Zhi           Volume           Dt            Time           CPU           T/CPU          S/CPU         CPULeft
41710000   302.89346      2.7906463     -33399661       1.9355142      901.96499     -33398759       651.24964      651.24964      651.24964      2174.3752      2825.6248      2174.3752      2825.6248      2174.3752      2825.6248      2.7621196e+08  0.5            21060000       0              0              0              0
Averages over the last 251 of 501 rows, steps 41760000 to 41810000:
Temp Press PotEng Density KinEng TotEng Lx Ly Lz Xlo Xhi Ylo Yhi Zlo Zhi Volume Dt
277504 2184.24 -3.25551e+07 1.93551 826360 -3.17287e+07 651.25 651.25 651.25 2174.38 2825.62 2174.38 2825.62 2174.38 2825.62 2.76212e+08 0.5
Loop time of 8.33428 on 4 procs for 100000 steps with 1000 atoms

unfix 2

fix 3 all nvt temp 370000 370000 $(100.0*dt) #iso 1.0 1.0 $(1000.0*dt)
fix 3 all nvt temp 370000 370000 50

run 200000
Generated 0 of 1 mixed pair_coeff terms from geometric mixing rule
Step          Temp          Press          PotEng        Density         KinEng         TotEng           Lx             Ly             Lz            Xlo            Xhi            Ylo            Yhi            Zlo            Zhi           Volume           Dt            Time           CPU           T/CPU          S/CPU         CPULeft
41810000   365086.94      2777.1026     -32462173       1.9355142      1087166.6     -31375007       651.24964      651.24964      651.24964      2174.3752      2825.6248      2174.3752      2825.6248      2174.3752      2825.6248      2.7621196e+08  0.5            21110000       0              0              0              0
Averages over the last 501 of 1001 rows, steps 41910000 to 42010000:
Temp Press PotEng Density KinEng TotEng Lx Ly Lz Xlo Xhi Ylo Yhi Zlo Zhi Volume Dt
370146 2801.24 -3.22419e+07 1.93551 1.10223e+06 -3.11397e+07 651.25 651.25 651.25 2174.38 2825.62 2174.38 2825.62 2174.38 2825.62 2.76212e+08 0.5
Loop time of 17.0219 on 4 procs for 200000 steps with 1000 atoms

unfix 3

fix 4 all nvt temp 370000 300 100.0

run 100000
Generated 0 of 1 mixed pair_coeff terms from geometric mixing rule
Step          Temp          Press          PotEng        Density         KinEng         TotEng           Lx             Ly             Lz            Xlo            Xhi            Ylo            Yhi            Zlo            Zhi           Volume           Dt            Time           CPU           T/CPU          S/CPU         CPULeft
42010000   364835.28      2773.0534     -32360422       1.9355142      1086417.2     -31274005       651.24964      651.24964      651.24964      2174.3752      2825.6248      2174.3752      2825.6248      2174.3752      2825.6248      2.7621196e+08  0.5            21210000       0              0              0              0
Averages over the last 251 of 501 rows, steps 42060000 to 42110000:
Temp Press PotEng Density KinEng TotEng Lx Ly Lz Xlo Xhi Ylo Yhi Zlo Zhi Volume Dt
93214.7 717.477 -3.3094e+07 1.93551 277577 -3.28164e+07 651.25 651.25 651.25 2174.38 2825.62 2174.38 2825.62 2174.38 2825.62 2.76212e+08 0.5
Loop time of 8.38087 on 4 procs for 100000 steps with 1000 atoms

unfix 4

fix 5 all npt temp 300 300 $(100.0*dt) iso 1.0 1.0 $(1000.0*dt)
fix 5 all npt temp 300 300 50 iso 1.0 1.0 $(1000.0*dt)
fix 5 all npt temp 300 300 50 iso 1.0 1.0 500

run 300000
Generated 0 of 1 mixed pair_coeff terms from geometric mixing rule
Step          Temp          Press          PotEng        Density         KinEng         TotEng           Lx             Ly             Lz            Xlo            Xhi            Ylo            Yhi            Zlo            Zhi           Volume           Dt            Time           CPU           T/CPU          S/CPU         CPULeft
42110000   1380.4684      36.94535      -33318797       1.9355142      4110.7992     -33314686       651.24964      651.24964      651.24964      2174.3752      2825.6248      2174.3752      2825.6248      2174.3752      2825.6248      2.7621196e+08  0.5            21260000       0              0              0              0
Averages over the last 751 of 1501 rows, steps 42260000 to 42410000:
Temp Press PotEng Density KinEng TotEng Lx Ly Lz Xlo Xhi Ylo Yhi Zlo Zhi Volume Dt
300.432 0.944886 -3.33866e+07 1.93735 894.635 -3.33857e+07 651.044 651.044 651.044 2174.48 2825.52 2174.48 2825.52 2174.48 2825.52 2.75951e+08 0.5
Loop time of 28.6808 on 4 procs for 300000 steps with 1000 atoms

# run_style
run_style verlet

# write restart
write_restart ./pgnpmf/55/equpmf60.res
System init for write_restart ...
Generated 0 of 1 mixed pair_coeff terms from geometric mixing rule
