LAMMPS (23 Jun 2022 - Update 1)
# Read restart
read_restart ./pgnpmf/55/equpmf39.res
Reading restart file ...
  restart file = 23 Jun 2022, LAMMPS = 23 Jun 2022
  restoring atom style atomic from restart
  orthogonal box = (2135.5655 2135.5655 2135.5655) to (2864.4345 2864.4345 2864.4345)
  restoring pair style table from restart
  1000 atoms
  read_restart CPU = 0.007 seconds

# Settings

pair_style table spline 9941

pair_coeff 1 1 ./pgnpmf/N20.txt DE_GNP 75.6
pair_coeff 2 2 ./pgnpmf/N100.txt DE_GNP 115.92
pair_coeff 1 2 ./pgnpmf/mixed_potential.txt DE_GNP 95.66

#Neigh_list Calc Frequency

neigh_modify delay 0 every 1 check yes

# Saving Frequency (50 frames)

variable ts_save equal 5000

# Dump
#dump_modify 1 first no sort id
dump 2 all cfg 50000 ./pgnpmf/55/equilibration/trajectory/dumpgen.tens_*.cfg mass type xs ys zs fx fy fz
dump_modify 2 element N20 N100

# thermo_style
thermo_style custom step temp press pe density ke etotal lx ly lz xlo xhi ylo yhi zlo zhi vol dt time cpu tpcpu spcpu cpuremain

# run info
timestep 0.5
thermo 200

# fix

fix 1 all momentum 1000 linear 1 1 1 angular
variable T equal 300
fix 2 all nvt temp 300 370000 100.0

run 100000
Generated 0 of 1 mixed pair_coeff terms from geometric mixing rule
Unused restart file global fix info:
  fix style: npt, fix ID: 5
  update every 1 steps, delay 0 steps, check yes
Step          Temp          Press          PotEng        Density         KinEng         TotEng           Lx             Ly             Lz            Xlo            Xhi            Ylo            Yhi            Zlo            Zhi           Volume           Dt            Time           CPU           T/CPU          S/CPU         CPULeft
27710000   308.36246      0.38756307    -30347024       1.380672       918.25075     -30346106       728.86893      728.86893      728.86893      2135.5655      2864.4345      2135.5655      2864.4345      2135.5655      2864.4345      3.8721156e+08  0.5            14060000       0              0              0              0
Averages over the last 251 of 501 rows, steps 27760000 to 27810000:
Temp Press PotEng Density KinEng TotEng Lx Ly Lz Xlo Xhi Ylo Yhi Zlo Zhi Volume Dt
277193 316.059 -2.9754e+07 1.38067 825432 -2.89286e+07 728.869 728.869 728.869 2135.57 2864.43 2135.57 2864.43 2135.57 2864.43 3.87212e+08 0.5
Loop time of 7.39587 on 4 procs for 100000 steps with 1000 atoms

unfix 2

fix 3 all nvt temp 370000 370000 $(100.0*dt) #iso 1.0 1.0 $(1000.0*dt)
fix 3 all nvt temp 370000 370000 50

run 200000
Generated 0 of 1 mixed pair_coeff terms from geometric mixing rule
Step          Temp          Press          PotEng        Density         KinEng         TotEng           Lx             Ly             Lz            Xlo            Xhi            Ylo            Yhi            Zlo            Zhi           Volume           Dt            Time           CPU           T/CPU          S/CPU         CPULeft
27810000   358935.38      268.4138      -29419832       1.380672       1068848.3     -28350984       728.86893      728.86893      728.86893      2135.5655      2864.4345      2135.5655      2864.4345      2135.5655      2864.4345      3.8721156e+08  0.5            14110000       0              0              0              0
Averages over the last 501 of 1001 rows, steps 27910000 to 28010000:
Temp Press PotEng Density KinEng TotEng Lx Ly Lz Xlo Xhi Ylo Yhi Zlo Zhi Volume Dt
370021 162.45 -2.83777e+07 1.38067 1.10186e+06 -2.72759e+07 728.869 728.869 728.869 2135.57 2864.43 2135.57 2864.43 2135.57 2864.43 3.87212e+08 0.5
Loop time of 14.5969 on 4 procs for 200000 steps with 1000 atoms

unfix 3

fix 4 all nvt temp 370000 300 100.0

run 100000
Generated 0 of 1 mixed pair_coeff terms from geometric mixing rule
Step          Temp          Press          PotEng        Density         KinEng         TotEng           Lx             Ly             Lz            Xlo            Xhi            Ylo            Yhi            Zlo            Zhi           Volume           Dt            Time           CPU           T/CPU          S/CPU         CPULeft
28010000   365347.86      116.04559     -28538346       1.380672       1087943.5     -27450403       728.86893      728.86893      728.86893      2135.5655      2864.4345      2135.5655      2864.4345      2135.5655      2864.4345      3.8721156e+08  0.5            14210000       0              0              0              0
Averages over the last 251 of 501 rows, steps 28060000 to 28110000:
Temp Press PotEng Density KinEng TotEng Lx Ly Lz Xlo Xhi Ylo Yhi Zlo Zhi Volume Dt
93260.5 -635.04 -2.92675e+07 1.38067 277714 -2.89898e+07 728.869 728.869 728.869 2135.57 2864.43 2135.57 2864.43 2135.57 2864.43 3.87212e+08 0.5
Loop time of 7.25384 on 4 procs for 100000 steps with 1000 atoms

unfix 4

fix 5 all npt temp 300 300 $(100.0*dt) iso 1.0 1.0 $(1000.0*dt)
fix 5 all npt temp 300 300 50 iso 1.0 1.0 $(1000.0*dt)
fix 5 all npt temp 300 300 50 iso 1.0 1.0 500

run 300000
Generated 0 of 1 mixed pair_coeff terms from geometric mixing rule
Step          Temp          Press          PotEng        Density         KinEng         TotEng           Lx             Ly             Lz            Xlo            Xhi            Ylo            Yhi            Zlo            Zhi           Volume           Dt            Time           CPU           T/CPU          S/CPU         CPULeft
28110000   1375.0361     -857.0193      -29621681       1.380672       4094.6228     -29617587       728.86893      728.86893      728.86893      2135.5655      2864.4345      2135.5655      2864.4345      2135.5655      2864.4345      3.8721156e+08  0.5            14260000       0              0              0              0
Averages over the last 751 of 1501 rows, steps 28260000 to 28410000:
Temp Press PotEng Density KinEng TotEng Lx Ly Lz Xlo Xhi Ylo Yhi Zlo Zhi Volume Dt
311.312 0.911959 -3.04134e+07 1.45944 927.035 -3.04125e+07 715.514 715.514 715.514 2142.24 2857.76 2142.24 2857.76 2142.24 2857.76 3.66317e+08 0.5
Loop time of 25.3267 on 4 procs for 300000 steps with 1000 atoms

# run_style
run_style verlet

# write restart
write_restart ./pgnpmf/55/equpmf40.res
System init for write_restart ...
Generated 0 of 1 mixed pair_coeff terms from geometric mixing rule
