LAMMPS (23 Jun 2022 - Update 1)
# Read restart
read_restart ./pgnpmf/55/equpmf44.res
Reading restart file ...
  restart file = 23 Jun 2022, LAMMPS = 23 Jun 2022
  restoring atom style atomic from restart
  orthogonal box = (2169.5171 2169.5171 2169.5171) to (2830.4829 2830.4829 2830.4829)
  restoring pair style table from restart
  1000 atoms
  read_restart CPU = 0.008 seconds

# Settings

pair_style table spline 9941

pair_coeff 1 1 ./pgnpmf/N20.txt DE_GNP 75.6
pair_coeff 2 2 ./pgnpmf/N100.txt DE_GNP 115.92
pair_coeff 1 2 ./pgnpmf/mixed_potential.txt DE_GNP 95.66

#Neigh_list Calc Frequency

neigh_modify delay 0 every 1 check yes

# Saving Frequency (50 frames)

variable ts_save equal 5000

# Dump
#dump_modify 1 first no sort id
dump 2 all cfg 50000 ./pgnpmf/55/equilibration/trajectory/dumpgen.tens_*.cfg mass type xs ys zs fx fy fz
dump_modify 2 element N20 N100

# thermo_style
thermo_style custom step temp press pe density ke etotal lx ly lz xlo xhi ylo yhi zlo zhi vol dt time cpu tpcpu spcpu cpuremain

# run info
timestep 0.5
thermo 200

# fix

fix 1 all momentum 1000 linear 1 1 1 angular
variable T equal 300
fix 2 all nvt temp 300 370000 100.0

run 100000
Generated 0 of 1 mixed pair_coeff terms from geometric mixing rule
Unused restart file global fix info:
  fix style: npt, fix ID: 5
  update every 1 steps, delay 0 steps, check yes
Step          Temp          Press          PotEng        Density         KinEng         TotEng           Lx             Ly             Lz            Xlo            Xhi            Ylo            Yhi            Zlo            Zhi           Volume           Dt            Time           CPU           T/CPU          S/CPU         CPULeft
31210000   304.33714     -2.4984899     -32554457       1.8514063      906.26405     -32553551       660.96587      660.96587      660.96587      2169.5171      2830.4829      2169.5171      2830.4829      2169.5171      2830.4829      2.8876005e+08  0.5            15810000       0              0              0              0
Averages over the last 251 of 501 rows, steps 31260000 to 31310000:
Temp Press PotEng Density KinEng TotEng Lx Ly Lz Xlo Xhi Ylo Yhi Zlo Zhi Volume Dt
277282 1490.56 -3.19403e+07 1.85141 825698 -3.11146e+07 660.966 660.966 660.966 2169.52 2830.48 2169.52 2830.48 2169.52 2830.48 2.8876e+08 0.5
Loop time of 7.77348 on 4 procs for 100000 steps with 1000 atoms

unfix 2

fix 3 all nvt temp 370000 370000 $(100.0*dt) #iso 1.0 1.0 $(1000.0*dt)
fix 3 all nvt temp 370000 370000 50

run 200000
Generated 0 of 1 mixed pair_coeff terms from geometric mixing rule
Step          Temp          Press          PotEng        Density         KinEng         TotEng           Lx             Ly             Lz            Xlo            Xhi            Ylo            Yhi            Zlo            Zhi           Volume           Dt            Time           CPU           T/CPU          S/CPU         CPULeft
31310000   369629.77      2127.8995     -31628633       1.8514063      1100694.3     -30527939       660.96587      660.96587      660.96587      2169.5171      2830.4829      2169.5171      2830.4829      2169.5171      2830.4829      2.8876005e+08  0.5            15860000       0              0              0              0
Averages over the last 501 of 1001 rows, steps 31410000 to 31510000:
Temp Press PotEng Density KinEng TotEng Lx Ly Lz Xlo Xhi Ylo Yhi Zlo Zhi Volume Dt
370172 1833.62 -3.16455e+07 1.85141 1.10231e+06 -3.05432e+07 660.966 660.966 660.966 2169.52 2830.48 2169.52 2830.48 2169.52 2830.48 2.8876e+08 0.5
Loop time of 15.6614 on 4 procs for 200000 steps with 1000 atoms

unfix 3

fix 4 all nvt temp 370000 300 100.0

run 100000
Generated 0 of 1 mixed pair_coeff terms from geometric mixing rule
Step          Temp          Press          PotEng        Density         KinEng         TotEng           Lx             Ly             Lz            Xlo            Xhi            Ylo            Yhi            Zlo            Zhi           Volume           Dt            Time           CPU           T/CPU          S/CPU         CPULeft
31510000   368230.18      1544.0069     -31672918       1.8514063      1096526.6     -30576392       660.96587      660.96587      660.96587      2169.5171      2830.4829      2169.5171      2830.4829      2169.5171      2830.4829      2.8876005e+08  0.5            15960000       0              0              0              0
Averages over the last 251 of 501 rows, steps 31560000 to 31610000:
Temp Press PotEng Density KinEng TotEng Lx Ly Lz Xlo Xhi Ylo Yhi Zlo Zhi Volume Dt
93019.6 -280.999 -3.23021e+07 1.85141 276996 -3.20251e+07 660.966 660.966 660.966 2169.52 2830.48 2169.52 2830.48 2169.52 2830.48 2.8876e+08 0.5
Loop time of 7.89328 on 4 procs for 100000 steps with 1000 atoms

unfix 4

fix 5 all npt temp 300 300 $(100.0*dt) iso 1.0 1.0 $(1000.0*dt)
fix 5 all npt temp 300 300 50 iso 1.0 1.0 $(1000.0*dt)
fix 5 all npt temp 300 300 50 iso 1.0 1.0 500

run 300000
Generated 0 of 1 mixed pair_coeff terms from geometric mixing rule
Step          Temp          Press          PotEng        Density         KinEng         TotEng           Lx             Ly             Lz            Xlo            Xhi            Ylo            Yhi            Zlo            Zhi           Volume           Dt            Time           CPU           T/CPU          S/CPU         CPULeft
31610000   1371.5163     -955.3419      -32547924       1.8514063      4084.1413     -32543840       660.96587      660.96587      660.96587      2169.5171      2830.4829      2169.5171      2830.4829      2169.5171      2830.4829      2.8876005e+08  0.5            16010000       0              0              0              0
Averages over the last 751 of 1501 rows, steps 31760000 to 31910000:
Temp Press PotEng Density KinEng TotEng Lx Ly Lz Xlo Xhi Ylo Yhi Zlo Zhi Volume Dt
301.448 1.18238 -3.29969e+07 1.8991 897.661 -3.2996e+07 655.386 655.386 655.386 2172.31 2827.69 2172.31 2827.69 2172.31 2827.69 2.81508e+08 0.5
Loop time of 27.5805 on 4 procs for 300000 steps with 1000 atoms

# run_style
run_style verlet

# write restart
write_restart ./pgnpmf/55/equpmf45.res
System init for write_restart ...
Generated 0 of 1 mixed pair_coeff terms from geometric mixing rule
