LAMMPS (23 Jun 2022 - Update 1)
# Read restart
read_restart ./pgnpmf/46/equpmf42.res
Reading restart file ...
  restart file = 23 Jun 2022, LAMMPS = 23 Jun 2022
  restoring atom style atomic from restart
  orthogonal box = (2161.9527 2161.9527 2161.9527) to (2838.0473 2838.0473 2838.0473)
  restoring pair style table from restart
  1000 atoms
  read_restart CPU = 0.006 seconds

# Settings

pair_style table spline 9941

pair_coeff 1 1 ./pgnpmf/N20.txt DE_GNP 75.6
pair_coeff 2 2 ./pgnpmf/N100.txt DE_GNP 115.92
pair_coeff 1 2 ./pgnpmf/mixed_potential.txt DE_GNP 95.66

#Neigh_list Calc Frequency

neigh_modify delay 0 every 1 check yes

# Saving Frequency (50 frames)

variable ts_save equal 5000

# Dump
#dump_modify 1 first no sort id
dump 2 all cfg 50000 ./pgnpmf/46/equilibration/trajectory/dumpgen.tens_*.cfg mass type xs ys zs fx fy fz
dump_modify 2 element N20 N100

# thermo_style
thermo_style custom step temp press pe density ke etotal lx ly lz xlo xhi ylo yhi zlo zhi vol dt time cpu tpcpu spcpu cpuremain

# run info
timestep 0.5
thermo 200

# fix

fix 1 all momentum 1000 linear 1 1 1 angular
variable T equal 300
fix 2 all nvt temp 300 370000 100.0

run 100000
Generated 0 of 1 mixed pair_coeff terms from geometric mixing rule
Unused restart file global fix info:
  fix style: npt, fix ID: 5
  update every 1 steps, delay 0 steps, check yes
Step          Temp          Press          PotEng        Density         KinEng         TotEng           Lx             Ly             Lz            Xlo            Xhi            Ylo            Yhi            Zlo            Zhi           Volume           Dt            Time           CPU           T/CPU          S/CPU         CPULeft
29810000   298.96546     -1.2834618     -39090371       1.8374514      890.2681      -39089481       676.09464      676.09464      676.09464      2161.9527      2838.0473      2161.9527      2838.0473      2161.9527      2838.0473      3.0904554e+08  0.5            15110000       0              0              0              0
Averages over the last 251 of 501 rows, steps 29860000 to 29910000:
Temp Press PotEng Density KinEng TotEng Lx Ly Lz Xlo Xhi Ylo Yhi Zlo Zhi Volume Dt
277592 1951.43 -3.82533e+07 1.83745 826621 -3.74267e+07 676.095 676.095 676.095 2161.95 2838.05 2161.95 2838.05 2161.95 2838.05 3.09046e+08 0.5
Loop time of 5.35345 on 4 procs for 100000 steps with 1000 atoms

unfix 2

fix 3 all nvt temp 370000 370000 $(100.0*dt) #iso 1.0 1.0 $(1000.0*dt)
fix 3 all nvt temp 370000 370000 50

run 200000
Generated 0 of 1 mixed pair_coeff terms from geometric mixing rule
Step          Temp          Press          PotEng        Density         KinEng         TotEng           Lx             Ly             Lz            Xlo            Xhi            Ylo            Yhi            Zlo            Zhi           Volume           Dt            Time           CPU           T/CPU          S/CPU         CPULeft
29910000   384118.05      2416.0673     -38029435       1.8374514      1143838       -36885597       676.09464      676.09464      676.09464      2161.9527      2838.0473      2161.9527      2838.0473      2161.9527      2838.0473      3.0904554e+08  0.5            15160000       0              0              0              0
Averages over the last 501 of 1001 rows, steps 30010000 to 30110000:
Temp Press PotEng Density KinEng TotEng Lx Ly Lz Xlo Xhi Ylo Yhi Zlo Zhi Volume Dt
369871 2364.01 -3.79462e+07 1.83745 1.10141e+06 -3.68448e+07 676.095 676.095 676.095 2161.95 2838.05 2161.95 2838.05 2161.95 2838.05 3.09046e+08 0.5
Loop time of 10.7049 on 4 procs for 200000 steps with 1000 atoms

unfix 3

fix 4 all nvt temp 370000 300 100.0

run 100000
Generated 0 of 1 mixed pair_coeff terms from geometric mixing rule
Step          Temp          Press          PotEng        Density         KinEng         TotEng           Lx             Ly             Lz            Xlo            Xhi            Ylo            Yhi            Zlo            Zhi           Volume           Dt            Time           CPU           T/CPU          S/CPU         CPULeft
30110000   365074.45      2257.6422     -38089147       1.8374514      1087129.4     -37002017       676.09464      676.09464      676.09464      2161.9527      2838.0473      2161.9527      2838.0473      2161.9527      2838.0473      3.0904554e+08  0.5            15260000       0              0              0              0
Averages over the last 251 of 501 rows, steps 30160000 to 30210000:
Temp Press PotEng Density KinEng TotEng Lx Ly Lz Xlo Xhi Ylo Yhi Zlo Zhi Volume Dt
93078.1 555.226 -3.87382e+07 1.83745 277171 -3.8461e+07 676.095 676.095 676.095 2161.95 2838.05 2161.95 2838.05 2161.95 2838.05 3.09046e+08 0.5
Loop time of 5.35523 on 4 procs for 100000 steps with 1000 atoms

unfix 4

fix 5 all npt temp 300 300 $(100.0*dt) iso 1.0 1.0 $(1000.0*dt)
fix 5 all npt temp 300 300 50 iso 1.0 1.0 $(1000.0*dt)
fix 5 all npt temp 300 300 50 iso 1.0 1.0 500

run 300000
Generated 0 of 1 mixed pair_coeff terms from geometric mixing rule
Step          Temp          Press          PotEng        Density         KinEng         TotEng           Lx             Ly             Lz            Xlo            Xhi            Ylo            Yhi            Zlo            Zhi           Volume           Dt            Time           CPU           T/CPU          S/CPU         CPULeft
30210000   1390.0326     -44.973989     -38979391       1.8374514      4139.2799     -38975252       676.09464      676.09464      676.09464      2161.9527      2838.0473      2161.9527      2838.0473      2161.9527      2838.0473      3.0904554e+08  0.5            15310000       0              0              0              0
Averages over the last 751 of 1501 rows, steps 30360000 to 30510000:
Temp Press PotEng Density KinEng TotEng Lx Ly Lz Xlo Xhi Ylo Yhi Zlo Zhi Volume Dt
300.108 1.11439 -3.91285e+07 1.84045 893.671 -3.91276e+07 675.727 675.727 675.727 2162.14 2837.86 2162.14 2837.86 2162.14 2837.86 3.08542e+08 0.5
Loop time of 18.8803 on 4 procs for 300000 steps with 1000 atoms

# run_style
run_style verlet

# write restart
write_restart ./pgnpmf/46/equpmf43.res
System init for write_restart ...
Generated 0 of 1 mixed pair_coeff terms from geometric mixing rule
