LAMMPS (23 Jun 2022 - Update 1)
# Read restart
read_restart ./pgnpmf/46/equpmf57.res
Reading restart file ...
  restart file = 23 Jun 2022, LAMMPS = 23 Jun 2022
  restoring atom style atomic from restart
  orthogonal box = (2162.5971 2162.5971 2162.5971) to (2837.4029 2837.4029 2837.4029)
  restoring pair style table from restart
  1000 atoms
  read_restart CPU = 0.008 seconds

# Settings

pair_style table spline 9941

pair_coeff 1 1 ./pgnpmf/N20.txt DE_GNP 75.6
pair_coeff 2 2 ./pgnpmf/N100.txt DE_GNP 115.92
pair_coeff 1 2 ./pgnpmf/mixed_potential.txt DE_GNP 95.66

#Neigh_list Calc Frequency

neigh_modify delay 0 every 1 check yes

# Saving Frequency (50 frames)

variable ts_save equal 5000

# Dump
#dump_modify 1 first no sort id
dump 2 all cfg 50000 ./pgnpmf/46/equilibration/trajectory/dumpgen.tens_*.cfg mass type xs ys zs fx fy fz
dump_modify 2 element N20 N100

# thermo_style
thermo_style custom step temp press pe density ke etotal lx ly lz xlo xhi ylo yhi zlo zhi vol dt time cpu tpcpu spcpu cpuremain

# run info
timestep 0.5
thermo 200

# fix

fix 1 all momentum 1000 linear 1 1 1 angular
variable T equal 300
fix 2 all nvt temp 300 370000 100.0

run 100000
Generated 0 of 1 mixed pair_coeff terms from geometric mixing rule
Unused restart file global fix info:
  fix style: npt, fix ID: 5
  update every 1 steps, delay 0 steps, check yes
Step          Temp          Press          PotEng        Density         KinEng         TotEng           Lx             Ly             Lz            Xlo            Xhi            Ylo            Yhi            Zlo            Zhi           Volume           Dt            Time           CPU           T/CPU          S/CPU         CPULeft
40310000   305.54824     -3.8149607     -39188357       1.8479998      909.87049     -39187447       674.8058       674.8058       674.8058       2162.5971      2837.4029      2162.5971      2837.4029      2162.5971      2837.4029      3.0728151e+08  0.5            20360000       0              0              0              0
Averages over the last 251 of 501 rows, steps 40360000 to 40410000:
Temp Press PotEng Density KinEng TotEng Lx Ly Lz Xlo Xhi Ylo Yhi Zlo Zhi Volume Dt
277928 2065.54 -3.83438e+07 1.848 827622 -3.75162e+07 674.806 674.806 674.806 2162.6 2837.4 2162.6 2837.4 2162.6 2837.4 3.07282e+08 0.5
Loop time of 6.05483 on 4 procs for 100000 steps with 1000 atoms

unfix 2

fix 3 all nvt temp 370000 370000 $(100.0*dt) #iso 1.0 1.0 $(1000.0*dt)
fix 3 all nvt temp 370000 370000 50

run 200000
Generated 0 of 1 mixed pair_coeff terms from geometric mixing rule
Step          Temp          Press          PotEng        Density         KinEng         TotEng           Lx             Ly             Lz            Xlo            Xhi            Ylo            Yhi            Zlo            Zhi           Volume           Dt            Time           CPU           T/CPU          S/CPU         CPULeft
40410000   367123.51      2491.1682     -38032563       1.8479998      1093231.1     -36939332       674.8058       674.8058       674.8058       2162.5971      2837.4029      2162.5971      2837.4029      2162.5971      2837.4029      3.0728151e+08  0.5            20410000       0              0              0              0
Averages over the last 501 of 1001 rows, steps 40510000 to 40610000:
Temp Press PotEng Density KinEng TotEng Lx Ly Lz Xlo Xhi Ylo Yhi Zlo Zhi Volume Dt
369793 2512.18 -3.80337e+07 1.848 1.10118e+06 -3.69325e+07 674.806 674.806 674.806 2162.6 2837.4 2162.6 2837.4 2162.6 2837.4 3.07282e+08 0.5
Loop time of 12.0749 on 4 procs for 200000 steps with 1000 atoms

unfix 3

fix 4 all nvt temp 370000 300 100.0

run 100000
Generated 0 of 1 mixed pair_coeff terms from geometric mixing rule
Step          Temp          Press          PotEng        Density         KinEng         TotEng           Lx             Ly             Lz            Xlo            Xhi            Ylo            Yhi            Zlo            Zhi           Volume           Dt            Time           CPU           T/CPU          S/CPU         CPULeft
40610000   372773.72      2525.8739     -38076207       1.8479998      1110056.5     -36966151       674.8058       674.8058       674.8058       2162.5971      2837.4029      2162.5971      2837.4029      2162.5971      2837.4029      3.0728151e+08  0.5            20510000       0              0              0              0
Averages over the last 251 of 501 rows, steps 40660000 to 40710000:
Temp Press PotEng Density KinEng TotEng Lx Ly Lz Xlo Xhi Ylo Yhi Zlo Zhi Volume Dt
92954.1 687.047 -3.87484e+07 1.848 276801 -3.84716e+07 674.806 674.806 674.806 2162.6 2837.4 2162.6 2837.4 2162.6 2837.4 3.07282e+08 0.5
Loop time of 6.03407 on 4 procs for 100000 steps with 1000 atoms

unfix 4

fix 5 all npt temp 300 300 $(100.0*dt) iso 1.0 1.0 $(1000.0*dt)
fix 5 all npt temp 300 300 50 iso 1.0 1.0 $(1000.0*dt)
fix 5 all npt temp 300 300 50 iso 1.0 1.0 500

run 300000
Generated 0 of 1 mixed pair_coeff terms from geometric mixing rule
Step          Temp          Press          PotEng        Density         KinEng         TotEng           Lx             Ly             Lz            Xlo            Xhi            Ylo            Yhi            Zlo            Zhi           Volume           Dt            Time           CPU           T/CPU          S/CPU         CPULeft
40710000   1398.7007      83.780118     -39029897       1.8479998      4165.0919     -39025732       674.8058       674.8058       674.8058       2162.5971      2837.4029      2162.5971      2837.4029      2162.5971      2837.4029      3.0728151e+08  0.5            20560000       0              0              0              0
Averages over the last 751 of 1501 rows, steps 40860000 to 41010000:
Temp Press PotEng Density KinEng TotEng Lx Ly Lz Xlo Xhi Ylo Yhi Zlo Zhi Volume Dt
300.308 0.687603 -3.91537e+07 1.84748 894.265 -3.91528e+07 674.87 674.87 674.87 2162.57 2837.43 2162.57 2837.43 2162.57 2837.43 3.07369e+08 0.5
Loop time of 21.2382 on 4 procs for 300000 steps with 1000 atoms

# run_style
run_style verlet

# write restart
write_restart ./pgnpmf/46/equpmf58.res
System init for write_restart ...
Generated 0 of 1 mixed pair_coeff terms from geometric mixing rule
