LAMMPS (23 Jun 2022 - Update 1)
# Read restart
read_restart ./pgnpmf/46/equpmf58.res
Reading restart file ...
  restart file = 23 Jun 2022, LAMMPS = 23 Jun 2022
  restoring atom style atomic from restart
  orthogonal box = (2162.5572 2162.5572 2162.5572) to (2837.4428 2837.4428 2837.4428)
  restoring pair style table from restart
  1000 atoms
  read_restart CPU = 0.007 seconds

# Settings

pair_style table spline 9941

pair_coeff 1 1 ./pgnpmf/N20.txt DE_GNP 75.6
pair_coeff 2 2 ./pgnpmf/N100.txt DE_GNP 115.92
pair_coeff 1 2 ./pgnpmf/mixed_potential.txt DE_GNP 95.66

#Neigh_list Calc Frequency

neigh_modify delay 0 every 1 check yes

# Saving Frequency (50 frames)

variable ts_save equal 5000

# Dump
#dump_modify 1 first no sort id
dump 2 all cfg 50000 ./pgnpmf/46/equilibration/trajectory/dumpgen.tens_*.cfg mass type xs ys zs fx fy fz
dump_modify 2 element N20 N100

# thermo_style
thermo_style custom step temp press pe density ke etotal lx ly lz xlo xhi ylo yhi zlo zhi vol dt time cpu tpcpu spcpu cpuremain

# run info
timestep 0.5
thermo 200

# fix

fix 1 all momentum 1000 linear 1 1 1 angular
variable T equal 300
fix 2 all nvt temp 300 370000 100.0

run 100000
Generated 0 of 1 mixed pair_coeff terms from geometric mixing rule
Unused restart file global fix info:
  fix style: npt, fix ID: 5
  update every 1 steps, delay 0 steps, check yes
Step          Temp          Press          PotEng        Density         KinEng         TotEng           Lx             Ly             Lz            Xlo            Xhi            Ylo            Yhi            Zlo            Zhi           Volume           Dt            Time           CPU           T/CPU          S/CPU         CPULeft
41010000   290.30828     -2.1289987     -39162943       1.8473443      864.4885      -39162078       674.88561      674.88561      674.88561      2162.5572      2837.4428      2162.5572      2837.4428      2162.5572      2837.4428      3.0739054e+08  0.5            20710000       0              0              0              0
Averages over the last 251 of 501 rows, steps 41060000 to 41110000:
Temp Press PotEng Density KinEng TotEng Lx Ly Lz Xlo Xhi Ylo Yhi Zlo Zhi Volume Dt
277373 2010.08 -3.8451e+07 1.84734 825969 -3.7625e+07 674.886 674.886 674.886 2162.56 2837.44 2162.56 2837.44 2162.56 2837.44 3.07391e+08 0.5
Loop time of 5.73264 on 4 procs for 100000 steps with 1000 atoms

unfix 2

fix 3 all nvt temp 370000 370000 $(100.0*dt) #iso 1.0 1.0 $(1000.0*dt)
fix 3 all nvt temp 370000 370000 50

run 200000
Generated 0 of 1 mixed pair_coeff terms from geometric mixing rule
Step          Temp          Press          PotEng        Density         KinEng         TotEng           Lx             Ly             Lz            Xlo            Xhi            Ylo            Yhi            Zlo            Zhi           Volume           Dt            Time           CPU           T/CPU          S/CPU         CPULeft
41110000   373220.97      2414.076      -38111992       1.8473443      1111388.3     -37000604       674.88561      674.88561      674.88561      2162.5572      2837.4428      2162.5572      2837.4428      2162.5572      2837.4428      3.0739054e+08  0.5            20760000       0              0              0              0
Averages over the last 501 of 1001 rows, steps 41210000 to 41310000:
Temp Press PotEng Density KinEng TotEng Lx Ly Lz Xlo Xhi Ylo Yhi Zlo Zhi Volume Dt
370240 2429.67 -3.80266e+07 1.84734 1.10251e+06 -3.69241e+07 674.886 674.886 674.886 2162.56 2837.44 2162.56 2837.44 2162.56 2837.44 3.07391e+08 0.5
Loop time of 11.5269 on 4 procs for 200000 steps with 1000 atoms

unfix 3

fix 4 all nvt temp 370000 300 100.0

run 100000
Generated 0 of 1 mixed pair_coeff terms from geometric mixing rule
Step          Temp          Press          PotEng        Density         KinEng         TotEng           Lx             Ly             Lz            Xlo            Xhi            Ylo            Yhi            Zlo            Zhi           Volume           Dt            Time           CPU           T/CPU          S/CPU         CPULeft
41310000   374454.93      2525.645      -37975212       1.8473443      1115062.8     -36860149       674.88561      674.88561      674.88561      2162.5572      2837.4428      2162.5572      2837.4428      2162.5572      2837.4428      3.0739054e+08  0.5            20860000       0              0              0              0
Averages over the last 251 of 501 rows, steps 41360000 to 41410000:
Temp Press PotEng Density KinEng TotEng Lx Ly Lz Xlo Xhi Ylo Yhi Zlo Zhi Volume Dt
92981 563.109 -3.88166e+07 1.84734 276882 -3.85398e+07 674.886 674.886 674.886 2162.56 2837.44 2162.56 2837.44 2162.56 2837.44 3.07391e+08 0.5
Loop time of 5.68293 on 4 procs for 100000 steps with 1000 atoms

unfix 4

fix 5 all npt temp 300 300 $(100.0*dt) iso 1.0 1.0 $(1000.0*dt)
fix 5 all npt temp 300 300 50 iso 1.0 1.0 $(1000.0*dt)
fix 5 all npt temp 300 300 50 iso 1.0 1.0 500

run 300000
Generated 0 of 1 mixed pair_coeff terms from geometric mixing rule
Step          Temp          Press          PotEng        Density         KinEng         TotEng           Lx             Ly             Lz            Xlo            Xhi            Ylo            Yhi            Zlo            Zhi           Volume           Dt            Time           CPU           T/CPU          S/CPU         CPULeft
41410000   1385.9054     -31.306546     -39043706       1.8473443      4126.9896     -39039579       674.88561      674.88561      674.88561      2162.5572      2837.4428      2162.5572      2837.4428      2162.5572      2837.4428      3.0739054e+08  0.5            20910000       0              0              0              0
Averages over the last 751 of 1501 rows, steps 41560000 to 41710000:
Temp Press PotEng Density KinEng TotEng Lx Ly Lz Xlo Xhi Ylo Yhi Zlo Zhi Volume Dt
299.942 0.933426 -3.91447e+07 1.85091 893.176 -3.91438e+07 674.452 674.452 674.452 2162.77 2837.23 2162.77 2837.23 2162.77 2837.23 3.06798e+08 0.5
Loop time of 20.2013 on 4 procs for 300000 steps with 1000 atoms

# run_style
run_style verlet

# write restart
write_restart ./pgnpmf/46/equpmf59.res
System init for write_restart ...
Generated 0 of 1 mixed pair_coeff terms from geometric mixing rule
