LAMMPS (23 Jun 2022 - Update 1)
# Read restart
read_restart ./pgnpmf/46/equpmf49.res
Reading restart file ...
  restart file = 23 Jun 2022, LAMMPS = 23 Jun 2022
  restoring atom style atomic from restart
  orthogonal box = (2162.42 2162.42 2162.42) to (2837.58 2837.58 2837.58)
  restoring pair style table from restart
  1000 atoms
  read_restart CPU = 0.009 seconds

# Settings

pair_style table spline 9941

pair_coeff 1 1 ./pgnpmf/N20.txt DE_GNP 75.6
pair_coeff 2 2 ./pgnpmf/N100.txt DE_GNP 115.92
pair_coeff 1 2 ./pgnpmf/mixed_potential.txt DE_GNP 95.66

#Neigh_list Calc Frequency

neigh_modify delay 0 every 1 check yes

# Saving Frequency (50 frames)

variable ts_save equal 5000

# Dump
#dump_modify 1 first no sort id
dump 2 all cfg 50000 ./pgnpmf/46/equilibration/trajectory/dumpgen.tens_*.cfg mass type xs ys zs fx fy fz
dump_modify 2 element N20 N100

# thermo_style
thermo_style custom step temp press pe density ke etotal lx ly lz xlo xhi ylo yhi zlo zhi vol dt time cpu tpcpu spcpu cpuremain

# run info
timestep 0.5
thermo 200

# fix

fix 1 all momentum 1000 linear 1 1 1 angular
variable T equal 300
fix 2 all nvt temp 300 370000 100.0

run 100000
Generated 0 of 1 mixed pair_coeff terms from geometric mixing rule
Unused restart file global fix info:
  fix style: npt, fix ID: 5
  update every 1 steps, delay 0 steps, check yes
Step          Temp          Press          PotEng        Density         KinEng         TotEng           Lx             Ly             Lz            Xlo            Xhi            Ylo            Yhi            Zlo            Zhi           Volume           Dt            Time           CPU           T/CPU          S/CPU         CPULeft
34710000   304.49889     -7.4426138     -39061842       1.8450936      906.7457      -39060935       675.1599       675.1599       675.1599       2162.42        2837.58        2162.42        2837.58        2162.42        2837.58        3.077655e+08   0.5            17560000       0              0              0              0
Averages over the last 251 of 501 rows, steps 34760000 to 34810000:
Temp Press PotEng Density KinEng TotEng Lx Ly Lz Xlo Xhi Ylo Yhi Zlo Zhi Volume Dt
277476 2102.09 -3.82254e+07 1.84509 826277 -3.73992e+07 675.16 675.16 675.16 2162.42 2837.58 2162.42 2837.58 2162.42 2837.58 3.07766e+08 0.5
Loop time of 5.55953 on 4 procs for 100000 steps with 1000 atoms

unfix 2

fix 3 all nvt temp 370000 370000 $(100.0*dt) #iso 1.0 1.0 $(1000.0*dt)
fix 3 all nvt temp 370000 370000 50

run 200000
Generated 0 of 1 mixed pair_coeff terms from geometric mixing rule
Step          Temp          Press          PotEng        Density         KinEng         TotEng           Lx             Ly             Lz            Xlo            Xhi            Ylo            Yhi            Zlo            Zhi           Volume           Dt            Time           CPU           T/CPU          S/CPU         CPULeft
34810000   377867.4       2638.3924     -38030380       1.8450936      1125224.6     -36905156       675.1599       675.1599       675.1599       2162.42        2837.58        2162.42        2837.58        2162.42        2837.58        3.077655e+08   0.5            17610000       0              0              0              0
Averages over the last 501 of 1001 rows, steps 34910000 to 35010000:
Temp Press PotEng Density KinEng TotEng Lx Ly Lz Xlo Xhi Ylo Yhi Zlo Zhi Volume Dt
369829 2509.61 -3.79575e+07 1.84509 1.10129e+06 -3.68563e+07 675.16 675.16 675.16 2162.42 2837.58 2162.42 2837.58 2162.42 2837.58 3.07766e+08 0.5
Loop time of 11.5672 on 4 procs for 200000 steps with 1000 atoms

unfix 3

fix 4 all nvt temp 370000 300 100.0

run 100000
Generated 0 of 1 mixed pair_coeff terms from geometric mixing rule
Step          Temp          Press          PotEng        Density         KinEng         TotEng           Lx             Ly             Lz            Xlo            Xhi            Ylo            Yhi            Zlo            Zhi           Volume           Dt            Time           CPU           T/CPU          S/CPU         CPULeft
35010000   380988.86      2521.9224     -37980448       1.8450936      1134519.8     -36845928       675.1599       675.1599       675.1599       2162.42        2837.58        2162.42        2837.58        2162.42        2837.58        3.077655e+08   0.5            17710000       0              0              0              0
Averages over the last 251 of 501 rows, steps 35060000 to 35110000:
Temp Press PotEng Density KinEng TotEng Lx Ly Lz Xlo Xhi Ylo Yhi Zlo Zhi Volume Dt
92962.4 659.366 -3.87247e+07 1.84509 276826 -3.84479e+07 675.16 675.16 675.16 2162.42 2837.58 2162.42 2837.58 2162.42 2837.58 3.07766e+08 0.5
Loop time of 5.69963 on 4 procs for 100000 steps with 1000 atoms

unfix 4

fix 5 all npt temp 300 300 $(100.0*dt) iso 1.0 1.0 $(1000.0*dt)
fix 5 all npt temp 300 300 50 iso 1.0 1.0 $(1000.0*dt)
fix 5 all npt temp 300 300 50 iso 1.0 1.0 500

run 300000
Generated 0 of 1 mixed pair_coeff terms from geometric mixing rule
Step          Temp          Press          PotEng        Density         KinEng         TotEng           Lx             Ly             Lz            Xlo            Xhi            Ylo            Yhi            Zlo            Zhi           Volume           Dt            Time           CPU           T/CPU          S/CPU         CPULeft
35110000   1383.421       63.787632     -38958870       1.8450936      4119.5915     -38954751       675.1599       675.1599       675.1599       2162.42        2837.58        2162.42        2837.58        2162.42        2837.58        3.077655e+08   0.5            17760000       0              0              0              0
Averages over the last 751 of 1501 rows, steps 35260000 to 35410000:
Temp Press PotEng Density KinEng TotEng Lx Ly Lz Xlo Xhi Ylo Yhi Zlo Zhi Volume Dt
300.157 0.934683 -3.90367e+07 1.84507 893.815 -3.90359e+07 675.163 675.163 675.163 2162.42 2837.58 2162.42 2837.58 2162.42 2837.58 3.07769e+08 0.5
Loop time of 20.3406 on 4 procs for 300000 steps with 1000 atoms

# run_style
run_style verlet

# write restart
write_restart ./pgnpmf/46/equpmf50.res
System init for write_restart ...
Generated 0 of 1 mixed pair_coeff terms from geometric mixing rule
