LAMMPS (23 Jun 2022 - Update 1)
# Read restart
read_restart ./pgnpmf/46/equpmf45.res
Reading restart file ...
  restart file = 23 Jun 2022, LAMMPS = 23 Jun 2022
  restoring atom style atomic from restart
  orthogonal box = (2162.261 2162.261 2162.261) to (2837.739 2837.739 2837.739)
  restoring pair style table from restart
  1000 atoms
  read_restart CPU = 0.008 seconds

# Settings

pair_style table spline 9941

pair_coeff 1 1 ./pgnpmf/N20.txt DE_GNP 75.6
pair_coeff 2 2 ./pgnpmf/N100.txt DE_GNP 115.92
pair_coeff 1 2 ./pgnpmf/mixed_potential.txt DE_GNP 95.66

#Neigh_list Calc Frequency

neigh_modify delay 0 every 1 check yes

# Saving Frequency (50 frames)

variable ts_save equal 5000

# Dump
#dump_modify 1 first no sort id
dump 2 all cfg 50000 ./pgnpmf/46/equilibration/trajectory/dumpgen.tens_*.cfg mass type xs ys zs fx fy fz
dump_modify 2 element N20 N100

# thermo_style
thermo_style custom step temp press pe density ke etotal lx ly lz xlo xhi ylo yhi zlo zhi vol dt time cpu tpcpu spcpu cpuremain

# run info
timestep 0.5
thermo 200

# fix

fix 1 all momentum 1000 linear 1 1 1 angular
variable T equal 300
fix 2 all nvt temp 300 370000 100.0

run 100000
Generated 0 of 1 mixed pair_coeff terms from geometric mixing rule
Unused restart file global fix info:
  fix style: npt, fix ID: 5
  update every 1 steps, delay 0 steps, check yes
Step          Temp          Press          PotEng        Density         KinEng         TotEng           Lx             Ly             Lz            Xlo            Xhi            Ylo            Yhi            Zlo            Zhi           Volume           Dt            Time           CPU           T/CPU          S/CPU         CPULeft
31910000   291.11562      3.4942603     -39159651       1.842488       866.89259     -39158784       675.47802      675.47802      675.47802      2162.261       2837.739       2162.261       2837.739       2162.261       2837.739       3.0820073e+08  0.5            16160000       0              0              0              0
Averages over the last 251 of 501 rows, steps 31960000 to 32010000:
Temp Press PotEng Density KinEng TotEng Lx Ly Lz Xlo Xhi Ylo Yhi Zlo Zhi Volume Dt
277374 2114.8 -3.81683e+07 1.84249 825972 -3.73423e+07 675.478 675.478 675.478 2162.26 2837.74 2162.26 2837.74 2162.26 2837.74 3.08201e+08 0.5
Loop time of 5.91933 on 4 procs for 100000 steps with 1000 atoms

unfix 2

fix 3 all nvt temp 370000 370000 $(100.0*dt) #iso 1.0 1.0 $(1000.0*dt)
fix 3 all nvt temp 370000 370000 50

run 200000
Generated 0 of 1 mixed pair_coeff terms from geometric mixing rule
Step          Temp          Press          PotEng        Density         KinEng         TotEng           Lx             Ly             Lz            Xlo            Xhi            Ylo            Yhi            Zlo            Zhi           Volume           Dt            Time           CPU           T/CPU          S/CPU         CPULeft
32010000   367906.79      2565.9352     -38026930       1.842488       1095563.6     -36931366       675.47802      675.47802      675.47802      2162.261       2837.739       2162.261       2837.739       2162.261       2837.739       3.0820073e+08  0.5            16210000       0              0              0              0
Averages over the last 501 of 1001 rows, steps 32110000 to 32210000:
Temp Press PotEng Density KinEng TotEng Lx Ly Lz Xlo Xhi Ylo Yhi Zlo Zhi Volume Dt
370074 2456.48 -3.80078e+07 1.84249 1.10202e+06 -3.69057e+07 675.478 675.478 675.478 2162.26 2837.74 2162.26 2837.74 2162.26 2837.74 3.08201e+08 0.5
Loop time of 11.7531 on 4 procs for 200000 steps with 1000 atoms

unfix 3

fix 4 all nvt temp 370000 300 100.0

run 100000
Generated 0 of 1 mixed pair_coeff terms from geometric mixing rule
Step          Temp          Press          PotEng        Density         KinEng         TotEng           Lx             Ly             Lz            Xlo            Xhi            Ylo            Yhi            Zlo            Zhi           Volume           Dt            Time           CPU           T/CPU          S/CPU         CPULeft
32210000   359739.05      2456.5155     -37977394       1.842488       1071241.5     -36906152       675.47802      675.47802      675.47802      2162.261       2837.739       2162.261       2837.739       2162.261       2837.739       3.0820073e+08  0.5            16310000       0              0              0              0
Averages over the last 251 of 501 rows, steps 32260000 to 32310000:
Temp Press PotEng Density KinEng TotEng Lx Ly Lz Xlo Xhi Ylo Yhi Zlo Zhi Volume Dt
92947.5 650.86 -3.8772e+07 1.84249 276782 -3.84952e+07 675.478 675.478 675.478 2162.26 2837.74 2162.26 2837.74 2162.26 2837.74 3.08201e+08 0.5
Loop time of 5.8415 on 4 procs for 100000 steps with 1000 atoms

unfix 4

fix 5 all npt temp 300 300 $(100.0*dt) iso 1.0 1.0 $(1000.0*dt)
fix 5 all npt temp 300 300 50 iso 1.0 1.0 $(1000.0*dt)
fix 5 all npt temp 300 300 50 iso 1.0 1.0 500

run 300000
Generated 0 of 1 mixed pair_coeff terms from geometric mixing rule
Step          Temp          Press          PotEng        Density         KinEng         TotEng           Lx             Ly             Lz            Xlo            Xhi            Ylo            Yhi            Zlo            Zhi           Volume           Dt            Time           CPU           T/CPU          S/CPU         CPULeft
32310000   1408.2283      48.054294     -39120718       1.842488       4193.4635     -39116525       675.47802      675.47802      675.47802      2162.261       2837.739       2162.261       2837.739       2162.261       2837.739       3.0820073e+08  0.5            16360000       0              0              0              0
Averages over the last 751 of 1501 rows, steps 32460000 to 32610000:
Temp Press PotEng Density KinEng TotEng Lx Ly Lz Xlo Xhi Ylo Yhi Zlo Zhi Volume Dt
300.205 1.03901 -3.91303e+07 1.8433 893.96 -3.91294e+07 675.378 675.378 675.378 2162.31 2837.69 2162.31 2837.69 2162.31 2837.69 3.08064e+08 0.5
Loop time of 20.4515 on 4 procs for 300000 steps with 1000 atoms

# run_style
run_style verlet

# write restart
write_restart ./pgnpmf/46/equpmf46.res
System init for write_restart ...
Generated 0 of 1 mixed pair_coeff terms from geometric mixing rule
