LAMMPS (23 Jun 2022 - Update 1)
# Read restart
read_restart ./pgnpmf/46/equpmf4.res
Reading restart file ...
  restart file = 23 Jun 2022, LAMMPS = 23 Jun 2022
  restoring atom style atomic from restart
  orthogonal box = (1734.7615 1734.7615 1734.7615) to (3265.2385 3265.2385 3265.2385)
  restoring pair style table from restart
  1000 atoms
  read_restart CPU = 0.008 seconds

# Settings

pair_style table spline 9941

pair_coeff 1 1 ./pgnpmf/N20.txt DE_GNP 75.6
pair_coeff 2 2 ./pgnpmf/N100.txt DE_GNP 115.92
pair_coeff 1 2 ./pgnpmf/mixed_potential.txt DE_GNP 95.66

#Neigh_list Calc Frequency

neigh_modify delay 0 every 1 check yes

# Saving Frequency (50 frames)

variable ts_save equal 5000

# Dump
#dump_modify 1 first no sort id
dump 2 all cfg 50000 ./pgnpmf/46/equilibration/trajectory/dumpgen.tens_*.cfg mass type xs ys zs fx fy fz
dump_modify 2 element N20 N100

# thermo_style
thermo_style custom step temp press pe density ke etotal lx ly lz xlo xhi ylo yhi zlo zhi vol dt time cpu tpcpu spcpu cpuremain

# run info
timestep 0.5
thermo 200

# fix

fix 1 all momentum 1000 linear 1 1 1 angular
variable T equal 300
fix 2 all nvt temp 300 370000 100.0

run 100000
Generated 0 of 1 mixed pair_coeff terms from geometric mixing rule
Unused restart file global fix info:
  fix style: npt, fix ID: 5
  update every 1 steps, delay 0 steps, check yes
Step          Temp          Press          PotEng        Density         KinEng         TotEng           Lx             Ly             Lz            Xlo            Xhi            Ylo            Yhi            Zlo            Zhi           Volume           Dt            Time           CPU           T/CPU          S/CPU         CPULeft
3210000   310.98247      1.1428395     -4742714.3      0.15840099     926.05268     -4741788.2      1530.477       1530.477       1530.477       1734.7615      3265.2385      1734.7615      3265.2385      1734.7615      3265.2385      3.584928e+09   0.5            1810000        0              0              0              0
Averages over the last 251 of 501 rows, steps 3260000 to 3310000:
Temp Press PotEng Density KinEng TotEng Lx Ly Lz Xlo Xhi Ylo Yhi Zlo Zhi Volume Dt
277602 6.72077 -4.39176e+06 0.158401 826652 -3.56511e+06 1530.48 1530.48 1530.48 1734.76 3265.24 1734.76 3265.24 1734.76 3265.24 3.58493e+09 0.5
Loop time of 1.93159 on 4 procs for 100000 steps with 1000 atoms

unfix 2

fix 3 all nvt temp 370000 370000 $(100.0*dt) #iso 1.0 1.0 $(1000.0*dt)
fix 3 all nvt temp 370000 370000 50

run 200000
Generated 0 of 1 mixed pair_coeff terms from geometric mixing rule
Step          Temp          Press          PotEng        Density         KinEng         TotEng           Lx             Ly             Lz            Xlo            Xhi            Ylo            Yhi            Zlo            Zhi           Volume           Dt            Time           CPU           T/CPU          S/CPU         CPULeft
3310000   361549.6       13.14277      -4287964        0.15840099     1076633       -3211331.1      1530.477       1530.477       1530.477       1734.7615      3265.2385      1734.7615      3265.2385      1734.7615      3265.2385      3.584928e+09   0.5            1860000        0              0              0              0
Averages over the last 501 of 1001 rows, steps 3410000 to 3510000:
Temp Press PotEng Density KinEng TotEng Lx Ly Lz Xlo Xhi Ylo Yhi Zlo Zhi Volume Dt
369940 9.74887 -4.90137e+06 0.158401 1.10162e+06 -3.79975e+06 1530.48 1530.48 1530.48 1734.76 3265.24 1734.76 3265.24 1734.76 3265.24 3.58493e+09 0.5
Loop time of 3.9199 on 4 procs for 200000 steps with 1000 atoms

unfix 3

fix 4 all nvt temp 370000 300 100.0

run 100000
Generated 0 of 1 mixed pair_coeff terms from geometric mixing rule
Step          Temp          Press          PotEng        Density         KinEng         TotEng           Lx             Ly             Lz            Xlo            Xhi            Ylo            Yhi            Zlo            Zhi           Volume           Dt            Time           CPU           T/CPU          S/CPU         CPULeft
3510000   372636.33      11.492923     -5268640.5      0.15840099     1109647.3     -4158993.2      1530.477       1530.477       1530.477       1734.7615      3265.2385      1734.7615      3265.2385      1734.7615      3265.2385      3.584928e+09   0.5            1960000        0              0              0              0
Averages over the last 251 of 501 rows, steps 3560000 to 3610000:
Temp Press PotEng Density KinEng TotEng Lx Ly Lz Xlo Xhi Ylo Yhi Zlo Zhi Volume Dt
93054.4 -5.79172 -5.92476e+06 0.158401 277100 -5.64766e+06 1530.48 1530.48 1530.48 1734.76 3265.24 1734.76 3265.24 1734.76 3265.24 3.58493e+09 0.5
Loop time of 2.02438 on 4 procs for 100000 steps with 1000 atoms

unfix 4

fix 5 all npt temp 300 300 $(100.0*dt) iso 1.0 1.0 $(1000.0*dt)
fix 5 all npt temp 300 300 50 iso 1.0 1.0 $(1000.0*dt)
fix 5 all npt temp 300 300 50 iso 1.0 1.0 500

run 300000
Generated 0 of 1 mixed pair_coeff terms from geometric mixing rule
Step          Temp          Press          PotEng        Density         KinEng         TotEng           Lx             Ly             Lz            Xlo            Xhi            Ylo            Yhi            Zlo            Zhi           Volume           Dt            Time           CPU           T/CPU          S/CPU         CPULeft
3610000   1348.5166     -13.941999     -6283089.6      0.15840099     4015.6521     -6279073.9      1530.477       1530.477       1530.477       1734.7615      3265.2385      1734.7615      3265.2385      1734.7615      3265.2385      3.584928e+09   0.5            2010000        0              0              0              0
Averages over the last 751 of 1501 rows, steps 3760000 to 3910000:
Temp Press PotEng Density KinEng TotEng Lx Ly Lz Xlo Xhi Ylo Yhi Zlo Zhi Volume Dt
311.993 0.999952 -6.77784e+06 0.187361 929.061 -6.77691e+06 1447.33 1447.33 1447.33 1776.34 3223.66 1776.34 3223.66 1776.34 3223.66 3.0323e+09 0.5
Loop time of 8.98621 on 4 procs for 300000 steps with 1000 atoms

# run_style
run_style verlet

# write restart
write_restart ./pgnpmf/46/equpmf5.res
System init for write_restart ...
Generated 0 of 1 mixed pair_coeff terms from geometric mixing rule
