LAMMPS (23 Jun 2022 - Update 1)
# Read restart
read_restart ./pgnpmf/46/equpmf18.res
Reading restart file ...
  restart file = 23 Jun 2022, LAMMPS = 23 Jun 2022
  restoring atom style atomic from restart
  orthogonal box = (2010.1586 2010.1586 2010.1586) to (2989.8414 2989.8414 2989.8414)
  restoring pair style table from restart
  1000 atoms
  read_restart CPU = 0.009 seconds

# Settings

pair_style table spline 9941

pair_coeff 1 1 ./pgnpmf/N20.txt DE_GNP 75.6
pair_coeff 2 2 ./pgnpmf/N100.txt DE_GNP 115.92
pair_coeff 1 2 ./pgnpmf/mixed_potential.txt DE_GNP 95.66

#Neigh_list Calc Frequency

neigh_modify delay 0 every 1 check yes

# Saving Frequency (50 frames)

variable ts_save equal 5000

# Dump
#dump_modify 1 first no sort id
dump 2 all cfg 50000 ./pgnpmf/46/equilibration/trajectory/dumpgen.tens_*.cfg mass type xs ys zs fx fy fz
dump_modify 2 element N20 N100

# thermo_style
thermo_style custom step temp press pe density ke etotal lx ly lz xlo xhi ylo yhi zlo zhi vol dt time cpu tpcpu spcpu cpuremain

# run info
timestep 0.5
thermo 200

# fix

fix 1 all momentum 1000 linear 1 1 1 angular
variable T equal 300
fix 2 all nvt temp 300 370000 100.0

run 100000
Generated 0 of 1 mixed pair_coeff terms from geometric mixing rule
Unused restart file global fix info:
  fix style: npt, fix ID: 5
  update every 1 steps, delay 0 steps, check yes
Step          Temp          Press          PotEng        Density         KinEng         TotEng           Lx             Ly             Lz            Xlo            Xhi            Ylo            Yhi            Zlo            Zhi           Volume           Dt            Time           CPU           T/CPU          S/CPU         CPULeft
13010000   309.22129      0.37139843    -28557180       0.60392331     920.80821     -28556259       979.68287      979.68287      979.68287      2010.1586      2989.8414      2010.1586      2989.8414      2010.1586      2989.8414      9.4027859e+08  0.5            6710000        0              0              0              0
Averages over the last 251 of 501 rows, steps 13060000 to 13110000:
Temp Press PotEng Density KinEng TotEng Lx Ly Lz Xlo Xhi Ylo Yhi Zlo Zhi Volume Dt
277397 12.0607 -2.83247e+07 0.603923 826040 -2.74986e+07 979.683 979.683 979.683 2010.16 2989.84 2010.16 2989.84 2010.16 2989.84 9.40279e+08 0.5
Loop time of 4.96909 on 4 procs for 100000 steps with 1000 atoms

unfix 2

fix 3 all nvt temp 370000 370000 $(100.0*dt) #iso 1.0 1.0 $(1000.0*dt)
fix 3 all nvt temp 370000 370000 50

run 200000
Generated 0 of 1 mixed pair_coeff terms from geometric mixing rule
Step          Temp          Press          PotEng        Density         KinEng         TotEng           Lx             Ly             Lz            Xlo            Xhi            Ylo            Yhi            Zlo            Zhi           Volume           Dt            Time           CPU           T/CPU          S/CPU         CPULeft
13110000   372977.75      62.225886     -27940022       0.60392331     1110664       -26829358       979.68287      979.68287      979.68287      2010.1586      2989.8414      2010.1586      2989.8414      2010.1586      2989.8414      9.4027859e+08  0.5            6760000        0              0              0              0
Averages over the last 501 of 1001 rows, steps 13210000 to 13310000:
Temp Press PotEng Density KinEng TotEng Lx Ly Lz Xlo Xhi Ylo Yhi Zlo Zhi Volume Dt
369687 19.2054 -2.65686e+07 0.603923 1.10087e+06 -2.54677e+07 979.683 979.683 979.683 2010.16 2989.84 2010.16 2989.84 2010.16 2989.84 9.40279e+08 0.5
Loop time of 10.116 on 4 procs for 200000 steps with 1000 atoms

unfix 3

fix 4 all nvt temp 370000 300 100.0

run 100000
Generated 0 of 1 mixed pair_coeff terms from geometric mixing rule
Step          Temp          Press          PotEng        Density         KinEng         TotEng           Lx             Ly             Lz            Xlo            Xhi            Ylo            Yhi            Zlo            Zhi           Volume           Dt            Time           CPU           T/CPU          S/CPU         CPULeft
13310000   357908.67     -0.13442679    -26482517       0.60392331     1065790.9     -25416726       979.68287      979.68287      979.68287      2010.1586      2989.8414      2010.1586      2989.8414      2010.1586      2989.8414      9.4027859e+08  0.5            6860000        0              0              0              0
Averages over the last 251 of 501 rows, steps 13360000 to 13410000:
Temp Press PotEng Density KinEng TotEng Lx Ly Lz Xlo Xhi Ylo Yhi Zlo Zhi Volume Dt
93251.2 -121.734 -2.77127e+07 0.603923 277686 -2.74351e+07 979.683 979.683 979.683 2010.16 2989.84 2010.16 2989.84 2010.16 2989.84 9.40279e+08 0.5
Loop time of 5.23306 on 4 procs for 100000 steps with 1000 atoms

unfix 4

fix 5 all npt temp 300 300 $(100.0*dt) iso 1.0 1.0 $(1000.0*dt)
fix 5 all npt temp 300 300 50 iso 1.0 1.0 $(1000.0*dt)
fix 5 all npt temp 300 300 50 iso 1.0 1.0 500

run 300000
Generated 0 of 1 mixed pair_coeff terms from geometric mixing rule
Step          Temp          Press          PotEng        Density         KinEng         TotEng           Lx             Ly             Lz            Xlo            Xhi            Ylo            Yhi            Zlo            Zhi           Volume           Dt            Time           CPU           T/CPU          S/CPU         CPULeft
13410000   1357.4823     -142.99179     -28274935       0.60392331     4042.3506     -28270893       979.68287      979.68287      979.68287      2010.1586      2989.8414      2010.1586      2989.8414      2010.1586      2989.8414      9.4027859e+08  0.5            6910000        0              0              0              0
Averages over the last 751 of 1501 rows, steps 13560000 to 13710000:
Temp Press PotEng Density KinEng TotEng Lx Ly Lz Xlo Xhi Ylo Yhi Zlo Zhi Volume Dt
311.86 1.06807 -2.88457e+07 0.631438 928.667 -2.88447e+07 965.246 965.246 965.246 2017.38 2982.62 2017.38 2982.62 2017.38 2982.62 8.99327e+08 0.5
Loop time of 19.1778 on 4 procs for 300000 steps with 1000 atoms

# run_style
run_style verlet

# write restart
write_restart ./pgnpmf/46/equpmf19.res
System init for write_restart ...
Generated 0 of 1 mixed pair_coeff terms from geometric mixing rule
