LAMMPS (23 Jun 2022 - Update 1)
# Read restart
read_restart ./pgnpmf/46/equpmf50.res
Reading restart file ...
  restart file = 23 Jun 2022, LAMMPS = 23 Jun 2022
  restoring atom style atomic from restart
  orthogonal box = (2162.4105 2162.4105 2162.4105) to (2837.5895 2837.5895 2837.5895)
  restoring pair style table from restart
  1000 atoms
  read_restart CPU = 0.007 seconds

# Settings

pair_style table spline 9941

pair_coeff 1 1 ./pgnpmf/N20.txt DE_GNP 75.6
pair_coeff 2 2 ./pgnpmf/N100.txt DE_GNP 115.92
pair_coeff 1 2 ./pgnpmf/mixed_potential.txt DE_GNP 95.66

#Neigh_list Calc Frequency

neigh_modify delay 0 every 1 check yes

# Saving Frequency (50 frames)

variable ts_save equal 5000

# Dump
#dump_modify 1 first no sort id
dump 2 all cfg 50000 ./pgnpmf/46/equilibration/trajectory/dumpgen.tens_*.cfg mass type xs ys zs fx fy fz
dump_modify 2 element N20 N100

# thermo_style
thermo_style custom step temp press pe density ke etotal lx ly lz xlo xhi ylo yhi zlo zhi vol dt time cpu tpcpu spcpu cpuremain

# run info
timestep 0.5
thermo 200

# fix

fix 1 all momentum 1000 linear 1 1 1 angular
variable T equal 300
fix 2 all nvt temp 300 370000 100.0

run 100000
Generated 0 of 1 mixed pair_coeff terms from geometric mixing rule
Unused restart file global fix info:
  fix style: npt, fix ID: 5
  update every 1 steps, delay 0 steps, check yes
Step          Temp          Press          PotEng        Density         KinEng         TotEng           Lx             Ly             Lz            Xlo            Xhi            Ylo            Yhi            Zlo            Zhi           Volume           Dt            Time           CPU           T/CPU          S/CPU         CPULeft
35410000   314.83224     -2.3397225     -39043080       1.8449365      937.51664     -39042142       675.17907      675.17907      675.17907      2162.4105      2837.5895      2162.4105      2837.5895      2162.4105      2837.5895      3.0779171e+08  0.5            17910000       0              0              0              0
Averages over the last 251 of 501 rows, steps 35460000 to 35510000:
Temp Press PotEng Density KinEng TotEng Lx Ly Lz Xlo Xhi Ylo Yhi Zlo Zhi Volume Dt
277561 2161.76 -3.82255e+07 1.84494 826530 -3.7399e+07 675.179 675.179 675.179 2162.41 2837.59 2162.41 2837.59 2162.41 2837.59 3.07792e+08 0.5
Loop time of 5.79613 on 4 procs for 100000 steps with 1000 atoms

unfix 2

fix 3 all nvt temp 370000 370000 $(100.0*dt) #iso 1.0 1.0 $(1000.0*dt)
fix 3 all nvt temp 370000 370000 50

run 200000
Generated 0 of 1 mixed pair_coeff terms from geometric mixing rule
Step          Temp          Press          PotEng        Density         KinEng         TotEng           Lx             Ly             Lz            Xlo            Xhi            Ylo            Yhi            Zlo            Zhi           Volume           Dt            Time           CPU           T/CPU          S/CPU         CPULeft
35510000   380656.67      2503.7984     -37952661       1.8449365      1133530.6     -36819130       675.17907      675.17907      675.17907      2162.4105      2837.5895      2162.4105      2837.5895      2162.4105      2837.5895      3.0779171e+08  0.5            17960000       0              0              0              0
Averages over the last 501 of 1001 rows, steps 35610000 to 35710000:
Temp Press PotEng Density KinEng TotEng Lx Ly Lz Xlo Xhi Ylo Yhi Zlo Zhi Volume Dt
369980 2478.16 -3.79006e+07 1.84494 1.10174e+06 -3.67988e+07 675.179 675.179 675.179 2162.41 2837.59 2162.41 2837.59 2162.41 2837.59 3.07792e+08 0.5
Loop time of 11.6313 on 4 procs for 200000 steps with 1000 atoms

unfix 3

fix 4 all nvt temp 370000 300 100.0

run 100000
Generated 0 of 1 mixed pair_coeff terms from geometric mixing rule
Step          Temp          Press          PotEng        Density         KinEng         TotEng           Lx             Ly             Lz            Xlo            Xhi            Ylo            Yhi            Zlo            Zhi           Volume           Dt            Time           CPU           T/CPU          S/CPU         CPULeft
35710000   367525.13      2501.0074     -37818327       1.8449365      1094427.1     -36723900       675.17907      675.17907      675.17907      2162.4105      2837.5895      2162.4105      2837.5895      2162.4105      2837.5895      3.0779171e+08  0.5            18060000       0              0              0              0
Averages over the last 251 of 501 rows, steps 35760000 to 35810000:
Temp Press PotEng Density KinEng TotEng Lx Ly Lz Xlo Xhi Ylo Yhi Zlo Zhi Volume Dt
93101 709.211 -3.86583e+07 1.84494 277239 -3.83811e+07 675.179 675.179 675.179 2162.41 2837.59 2162.41 2837.59 2162.41 2837.59 3.07792e+08 0.5
Loop time of 5.79213 on 4 procs for 100000 steps with 1000 atoms

unfix 4

fix 5 all npt temp 300 300 $(100.0*dt) iso 1.0 1.0 $(1000.0*dt)
fix 5 all npt temp 300 300 50 iso 1.0 1.0 $(1000.0*dt)
fix 5 all npt temp 300 300 50 iso 1.0 1.0 500

run 300000
Generated 0 of 1 mixed pair_coeff terms from geometric mixing rule
Step          Temp          Press          PotEng        Density         KinEng         TotEng           Lx             Ly             Lz            Xlo            Xhi            Ylo            Yhi            Zlo            Zhi           Volume           Dt            Time           CPU           T/CPU          S/CPU         CPULeft
35810000   1391.6734      112.63259     -38912866       1.8449365      4144.1657     -38908722       675.17907      675.17907      675.17907      2162.4105      2837.5895      2162.4105      2837.5895      2162.4105      2837.5895      3.0779171e+08  0.5            18110000       0              0              0              0
Averages over the last 751 of 1501 rows, steps 35960000 to 36110000:
Temp Press PotEng Density KinEng TotEng Lx Ly Lz Xlo Xhi Ylo Yhi Zlo Zhi Volume Dt
300.342 0.899609 -3.899e+07 1.84395 894.368 -3.89891e+07 675.3 675.3 675.3 2162.35 2837.65 2162.35 2837.65 2162.35 2837.65 3.07957e+08 0.5
Loop time of 20.3403 on 4 procs for 300000 steps with 1000 atoms

# run_style
run_style verlet

# write restart
write_restart ./pgnpmf/46/equpmf51.res
System init for write_restart ...
Generated 0 of 1 mixed pair_coeff terms from geometric mixing rule
