LAMMPS (23 Jun 2022 - Update 1)
# Read restart
read_restart ./pgnpmf/46/genpmf.res
Reading restart file ...
  restart file = 23 Jun 2022, LAMMPS = 23 Jun 2022
  restoring atom style atomic from restart
  orthogonal box = (-100 -100 -100) to (5100 5100 5100)
  restoring pair style table from restart
  1000 atoms
  read_restart CPU = 0.009 seconds

# Settings

pair_style table spline 9941

pair_coeff 1 1 ./pgnpmf/N20.txt DE_GNP 75.6
pair_coeff 2 2 ./pgnpmf/N100.txt DE_GNP 115.92
pair_coeff 1 2 ./pgnpmf/mixed_potential.txt DE_GNP 95.66

#Neigh_list Calc Frequency

neigh_modify delay 0 every 1 check yes

# Saving Frequency (50 frames)

variable ts_save equal 5000

# Dump
#dump_modify 1 first no sort id
dump 2 all cfg 50000 ./pgnpmf/46/equilibration/trajectory/dumpgen.tens_*.cfg mass type xs ys zs fx fy fz
dump_modify 2 element N20 N100

# thermo_style
thermo_style custom step temp press pe density ke etotal lx ly lz xlo xhi ylo yhi zlo zhi vol dt time cpu tpcpu spcpu cpuremain

# run info
timestep 0.5
thermo 200

# fix

fix 1 all momentum 1000 linear 1 1 1 angular
variable T equal 300
fix 2 all nvt temp 300 370000 100.0
  fix style: nvt, fix ID: 2

run 100000
Generated 0 of 1 mixed pair_coeff terms from geometric mixing rule
Unused restart file global fix info:
  fix style: nvt, fix ID: 3
  fix style: nvt, fix ID: 4
  update every 1 steps, delay 0 steps, check yes
Step          Temp          Press          PotEng        Density         KinEng         TotEng           Lx             Ly             Lz            Xlo            Xhi            Ylo            Yhi            Zlo            Zhi           Volume           Dt            Time           CPU           T/CPU          S/CPU         CPULeft
410000   32985.344      0.050177672   -224950.08      0.0040385764   98224.721     -126725.36      5200           5200           5200          -100            5100          -100            5100          -100            5100           1.40608e+11    0.5            410000         0              0              0              0
Averages over the last 251 of 501 rows, steps 460000 to 510000:
Temp Press PotEng Density KinEng TotEng Lx Ly Lz Xlo Xhi Ylo Yhi Zlo Zhi Volume Dt
277598 0.26595 -111429 0.00403858 826639 715210 5200 5200 5200 -100 5100 -100 5100 -100 5100 1.40608e+11 0.5
Loop time of 2.7749 on 1 procs for 100000 steps with 1000 atoms

unfix 2

fix 3 all nvt temp 370000 370000 $(100.0*dt) #iso 1.0 1.0 $(1000.0*dt)
fix 3 all nvt temp 370000 370000 50

run 200000
Generated 0 of 1 mixed pair_coeff terms from geometric mixing rule
Step          Temp          Press          PotEng        Density         KinEng         TotEng           Lx             Ly             Lz            Xlo            Xhi            Ylo            Yhi            Zlo            Zhi           Volume           Dt            Time           CPU           T/CPU          S/CPU         CPULeft
510000   360448.03      0.33053331    -119683.18      0.0040385764   1073352.7      953669.49      5200           5200           5200          -100            5100          -100            5100          -100            5100           1.40608e+11    0.5            460000         0              0              0              0
Averages over the last 501 of 1001 rows, steps 610000 to 710000:
Temp Press PotEng Density KinEng TotEng Lx Ly Lz Xlo Xhi Ylo Yhi Zlo Zhi Volume Dt
370015 0.355705 -111510 0.00403858 1.10184e+06 990333 5200 5200 5200 -100 5100 -100 5100 -100 5100 1.40608e+11 0.5
Loop time of 5.26169 on 1 procs for 200000 steps with 1000 atoms

unfix 3

fix 4 all nvt temp 370000 300 100.0

run 100000
Generated 0 of 1 mixed pair_coeff terms from geometric mixing rule
Step          Temp          Press          PotEng        Density         KinEng         TotEng           Lx             Ly             Lz            Xlo            Xhi            Ylo            Yhi            Zlo            Zhi           Volume           Dt            Time           CPU           T/CPU          S/CPU         CPULeft
710000   382124.56      0.35702253    -143218.6       0.0040385764   1137901.7      994683.09      5200           5200           5200          -100            5100          -100            5100          -100            5100           1.40608e+11    0.5            560000         0              0              0              0
Averages over the last 251 of 501 rows, steps 760000 to 810000:
Temp Press PotEng Density KinEng TotEng Lx Ly Lz Xlo Xhi Ylo Yhi Zlo Zhi Volume Dt
92997.9 0.0842489 -125258 0.00403858 276932 151674 5200 5200 5200 -100 5100 -100 5100 -100 5100 1.40608e+11 0.5
Loop time of 2.46838 on 1 procs for 100000 steps with 1000 atoms

unfix 4

fix 5 all npt temp 300 300 $(100.0*dt) iso 1.0 1.0 $(1000.0*dt)
fix 5 all npt temp 300 300 50 iso 1.0 1.0 $(1000.0*dt)
fix 5 all npt temp 300 300 50 iso 1.0 1.0 500

run 300000
Generated 0 of 1 mixed pair_coeff terms from geometric mixing rule
Step          Temp          Press          PotEng        Density         KinEng         TotEng           Lx             Ly             Lz            Xlo            Xhi            Ylo            Yhi            Zlo            Zhi           Volume           Dt            Time           CPU           T/CPU          S/CPU         CPULeft
810000   1121.048      -0.011768771   -138054.45      0.0040385764   3338.2895     -134716.16      5200           5200           5200          -100            5100          -100            5100          -100            5100           1.40608e+11    0.5            610000         0              0              0              0
Averages over the last 751 of 1501 rows, steps 960000 to 1110000:
Temp Press PotEng Density KinEng TotEng Lx Ly Lz Xlo Xhi Ylo Yhi Zlo Zhi Volume Dt
334.96 0.999724 -1.66158e+06 0.0326774 997.452 -1.66058e+06 2604.59 2604.59 2604.59 1197.7 3802.3 1197.7 3802.3 1197.7 3802.3 1.78205e+10 0.5
Loop time of 17.0603 on 1 procs for 300000 steps with 1000 atoms

# run_style
run_style verlet

# write restart
write_restart ./pgnpmf/46/equpmf1.res
System init for write_restart ...
Generated 0 of 1 mixed pair_coeff terms from geometric mixing rule
