LAMMPS (23 Jun 2022 - Update 1)
# Read restart
read_restart ./pgnpmf/46/equpmf37.res
Reading restart file ...
  restart file = 23 Jun 2022, LAMMPS = 23 Jun 2022
  restoring atom style atomic from restart
  orthogonal box = (2155.5649 2155.5649 2155.5649) to (2844.4351 2844.4351 2844.4351)
  restoring pair style table from restart
  1000 atoms
  read_restart CPU = 0.009 seconds

# Settings

pair_style table spline 9941

pair_coeff 1 1 ./pgnpmf/N20.txt DE_GNP 75.6
pair_coeff 2 2 ./pgnpmf/N100.txt DE_GNP 115.92
pair_coeff 1 2 ./pgnpmf/mixed_potential.txt DE_GNP 95.66

#Neigh_list Calc Frequency

neigh_modify delay 0 every 1 check yes

# Saving Frequency (50 frames)

variable ts_save equal 5000

# Dump
#dump_modify 1 first no sort id
dump 2 all cfg 50000 ./pgnpmf/46/equilibration/trajectory/dumpgen.tens_*.cfg mass type xs ys zs fx fy fz
dump_modify 2 element N20 N100

# thermo_style
thermo_style custom step temp press pe density ke etotal lx ly lz xlo xhi ylo yhi zlo zhi vol dt time cpu tpcpu spcpu cpuremain

# run info
timestep 0.5
thermo 200

# fix

fix 1 all momentum 1000 linear 1 1 1 angular
variable T equal 300
fix 2 all nvt temp 300 370000 100.0

run 100000
Generated 0 of 1 mixed pair_coeff terms from geometric mixing rule
Unused restart file global fix info:
  fix style: npt, fix ID: 5
  update every 1 steps, delay 0 steps, check yes
Step          Temp          Press          PotEng        Density         KinEng         TotEng           Lx             Ly             Lz            Xlo            Xhi            Ylo            Yhi            Zlo            Zhi           Volume           Dt            Time           CPU           T/CPU          S/CPU         CPULeft
26310000   304.41763     -6.7252294     -37470296       1.737106       906.50373     -37469389       688.8701       688.8701       688.8701       2155.5649      2844.4351      2155.5649      2844.4351      2155.5649      2844.4351      3.2689781e+08  0.5            13360000       0              0              0              0
Averages over the last 251 of 501 rows, steps 26360000 to 26410000:
Temp Press PotEng Density KinEng TotEng Lx Ly Lz Xlo Xhi Ylo Yhi Zlo Zhi Volume Dt
277384 1140.14 -3.70652e+07 1.73711 826002 -3.62392e+07 688.87 688.87 688.87 2155.56 2844.44 2155.56 2844.44 2155.56 2844.44 3.26898e+08 0.5
Loop time of 5.14777 on 4 procs for 100000 steps with 1000 atoms

unfix 2

fix 3 all nvt temp 370000 370000 $(100.0*dt) #iso 1.0 1.0 $(1000.0*dt)
fix 3 all nvt temp 370000 370000 50

run 200000
Generated 0 of 1 mixed pair_coeff terms from geometric mixing rule
Step          Temp          Press          PotEng        Density         KinEng         TotEng           Lx             Ly             Lz            Xlo            Xhi            Ylo            Yhi            Zlo            Zhi           Volume           Dt            Time           CPU           T/CPU          S/CPU         CPULeft
26410000   367066.37      1616.9189     -36868510       1.737106       1093061       -35775449       688.8701       688.8701       688.8701       2155.5649      2844.4351      2155.5649      2844.4351      2155.5649      2844.4351      3.2689781e+08  0.5            13410000       0              0              0              0
Averages over the last 501 of 1001 rows, steps 26510000 to 26610000:
Temp Press PotEng Density KinEng TotEng Lx Ly Lz Xlo Xhi Ylo Yhi Zlo Zhi Volume Dt
369956 1210.34 -3.6688e+07 1.73711 1.10167e+06 -3.55863e+07 688.87 688.87 688.87 2155.56 2844.44 2155.56 2844.44 2155.56 2844.44 3.26898e+08 0.5
Loop time of 10.5133 on 4 procs for 200000 steps with 1000 atoms

unfix 3

fix 4 all nvt temp 370000 300 100.0

run 100000
Generated 0 of 1 mixed pair_coeff terms from geometric mixing rule
Step          Temp          Press          PotEng        Density         KinEng         TotEng           Lx             Ly             Lz            Xlo            Xhi            Ylo            Yhi            Zlo            Zhi           Volume           Dt            Time           CPU           T/CPU          S/CPU         CPULeft
26610000   373456.78      1186.731      -36683138       1.737106       1112090.5     -35571048       688.8701       688.8701       688.8701       2155.5649      2844.4351      2155.5649      2844.4351      2155.5649      2844.4351      3.2689781e+08  0.5            13510000       0              0              0              0
Averages over the last 251 of 501 rows, steps 26660000 to 26710000:
Temp Press PotEng Density KinEng TotEng Lx Ly Lz Xlo Xhi Ylo Yhi Zlo Zhi Volume Dt
93202.5 -625.506 -3.73995e+07 1.73711 277541 -3.71219e+07 688.87 688.87 688.87 2155.56 2844.44 2155.56 2844.44 2155.56 2844.44 3.26898e+08 0.5
Loop time of 5.36168 on 4 procs for 100000 steps with 1000 atoms

unfix 4

fix 5 all npt temp 300 300 $(100.0*dt) iso 1.0 1.0 $(1000.0*dt)
fix 5 all npt temp 300 300 50 iso 1.0 1.0 $(1000.0*dt)
fix 5 all npt temp 300 300 50 iso 1.0 1.0 500

run 300000
Generated 0 of 1 mixed pair_coeff terms from geometric mixing rule
Step          Temp          Press          PotEng        Density         KinEng         TotEng           Lx             Ly             Lz            Xlo            Xhi            Ylo            Yhi            Zlo            Zhi           Volume           Dt            Time           CPU           T/CPU          S/CPU         CPULeft
26710000   1374.7248     -1230.5907     -37642936       1.737106       4093.6957     -37638842       688.8701       688.8701       688.8701       2155.5649      2844.4351      2155.5649      2844.4351      2155.5649      2844.4351      3.2689781e+08  0.5            13560000       0              0              0              0
Averages over the last 751 of 1501 rows, steps 26860000 to 27010000:
Temp Press PotEng Density KinEng TotEng Lx Ly Lz Xlo Xhi Ylo Yhi Zlo Zhi Volume Dt
303.009 0.855904 -3.83672e+07 1.79934 902.31 -3.83663e+07 680.835 680.835 680.835 2159.58 2840.42 2159.58 2840.42 2159.58 2840.42 3.15591e+08 0.5
Loop time of 19.4033 on 4 procs for 300000 steps with 1000 atoms

# run_style
run_style verlet

# write restart
write_restart ./pgnpmf/46/equpmf38.res
System init for write_restart ...
Generated 0 of 1 mixed pair_coeff terms from geometric mixing rule
