LAMMPS (23 Jun 2022 - Update 1)
# Read restart
read_restart ./pgnpmf/46/equpmf21.res
Reading restart file ...
  restart file = 23 Jun 2022, LAMMPS = 23 Jun 2022
  restoring atom style atomic from restart
  orthogonal box = (2035.8824 2035.8824 2035.8824) to (2964.1176 2964.1176 2964.1176)
  restoring pair style table from restart
  1000 atoms
  read_restart CPU = 0.007 seconds

# Settings

pair_style table spline 9941

pair_coeff 1 1 ./pgnpmf/N20.txt DE_GNP 75.6
pair_coeff 2 2 ./pgnpmf/N100.txt DE_GNP 115.92
pair_coeff 1 2 ./pgnpmf/mixed_potential.txt DE_GNP 95.66

#Neigh_list Calc Frequency

neigh_modify delay 0 every 1 check yes

# Saving Frequency (50 frames)

variable ts_save equal 5000

# Dump
#dump_modify 1 first no sort id
dump 2 all cfg 50000 ./pgnpmf/46/equilibration/trajectory/dumpgen.tens_*.cfg mass type xs ys zs fx fy fz
dump_modify 2 element N20 N100

# thermo_style
thermo_style custom step temp press pe density ke etotal lx ly lz xlo xhi ylo yhi zlo zhi vol dt time cpu tpcpu spcpu cpuremain

# run info
timestep 0.5
thermo 200

# fix

fix 1 all momentum 1000 linear 1 1 1 angular
variable T equal 300
fix 2 all nvt temp 300 370000 100.0

run 100000
Generated 0 of 1 mixed pair_coeff terms from geometric mixing rule
Unused restart file global fix info:
  fix style: npt, fix ID: 5
  update every 1 steps, delay 0 steps, check yes
Step          Temp          Press          PotEng        Density         KinEng         TotEng           Lx             Ly             Lz            Xlo            Xhi            Ylo            Yhi            Zlo            Zhi           Volume           Dt            Time           CPU           T/CPU          S/CPU         CPULeft
15110000   309.13211      1.4048776     -30064218       0.71000961     920.54264     -30063297       928.23521      928.23521      928.23521      2035.8824      2964.1176      2035.8824      2964.1176      2035.8824      2964.1176      7.9978658e+08  0.5            7760000        0              0              0              0
Averages over the last 251 of 501 rows, steps 15160000 to 15210000:
Temp Press PotEng Density KinEng TotEng Lx Ly Lz Xlo Xhi Ylo Yhi Zlo Zhi Volume Dt
277428 27.0634 -2.96469e+07 0.71001 826133 -2.88208e+07 928.235 928.235 928.235 2035.88 2964.12 2035.88 2964.12 2035.88 2964.12 7.99787e+08 0.5
Loop time of 5.78403 on 4 procs for 100000 steps with 1000 atoms

unfix 2

fix 3 all nvt temp 370000 370000 $(100.0*dt) #iso 1.0 1.0 $(1000.0*dt)
fix 3 all nvt temp 370000 370000 50

run 200000
Generated 0 of 1 mixed pair_coeff terms from geometric mixing rule
Step          Temp          Press          PotEng        Density         KinEng         TotEng           Lx             Ly             Lz            Xlo            Xhi            Ylo            Yhi            Zlo            Zhi           Volume           Dt            Time           CPU           T/CPU          S/CPU         CPULeft
15210000   368648.06      34.65644      -29304166       0.71000961     1097771       -28206395       928.23521      928.23521      928.23521      2035.8824      2964.1176      2035.8824      2964.1176      2035.8824      2964.1176      7.9978658e+08  0.5            7810000        0              0              0              0
Averages over the last 501 of 1001 rows, steps 15310000 to 15410000:
Temp Press PotEng Density KinEng TotEng Lx Ly Lz Xlo Xhi Ylo Yhi Zlo Zhi Volume Dt
370102 12.2243 -2.8673e+07 0.71001 1.1021e+06 -2.75709e+07 928.235 928.235 928.235 2035.88 2964.12 2035.88 2964.12 2035.88 2964.12 7.99787e+08 0.5
Loop time of 11.6381 on 4 procs for 200000 steps with 1000 atoms

unfix 3

fix 4 all nvt temp 370000 300 100.0

run 100000
Generated 0 of 1 mixed pair_coeff terms from geometric mixing rule
Step          Temp          Press          PotEng        Density         KinEng         TotEng           Lx             Ly             Lz            Xlo            Xhi            Ylo            Yhi            Zlo            Zhi           Volume           Dt            Time           CPU           T/CPU          S/CPU         CPULeft
15410000   367006.07     -42.908951     -28342406       0.71000961     1092881.4     -27249524       928.23521      928.23521      928.23521      2035.8824      2964.1176      2035.8824      2964.1176      2035.8824      2964.1176      7.9978658e+08  0.5            7910000        0              0              0              0
Averages over the last 251 of 501 rows, steps 15460000 to 15510000:
Temp Press PotEng Density KinEng TotEng Lx Ly Lz Xlo Xhi Ylo Yhi Zlo Zhi Volume Dt
93189.3 -176.575 -2.97408e+07 0.71001 277502 -2.94633e+07 928.235 928.235 928.235 2035.88 2964.12 2035.88 2964.12 2035.88 2964.12 7.99787e+08 0.5
Loop time of 5.75193 on 4 procs for 100000 steps with 1000 atoms

unfix 4

fix 5 all npt temp 300 300 $(100.0*dt) iso 1.0 1.0 $(1000.0*dt)
fix 5 all npt temp 300 300 50 iso 1.0 1.0 $(1000.0*dt)
fix 5 all npt temp 300 300 50 iso 1.0 1.0 500

run 300000
Generated 0 of 1 mixed pair_coeff terms from geometric mixing rule
Step          Temp          Press          PotEng        Density         KinEng         TotEng           Lx             Ly             Lz            Xlo            Xhi            Ylo            Yhi            Zlo            Zhi           Volume           Dt            Time           CPU           T/CPU          S/CPU         CPULeft
15510000   1361.5259     -213.79766     -30250903       0.71000961     4054.3915     -30246848       928.23521      928.23521      928.23521      2035.8824      2964.1176      2035.8824      2964.1176      2035.8824      2964.1176      7.9978658e+08  0.5            7960000        0              0              0              0
Averages over the last 751 of 1501 rows, steps 15660000 to 15810000:
Temp Press PotEng Density KinEng TotEng Lx Ly Lz Xlo Xhi Ylo Yhi Zlo Zhi Volume Dt
310.851 0.973696 -3.08782e+07 0.743724 925.661 -3.08773e+07 913.996 913.996 913.996 2043 2957 2043 2957 2043 2957 7.63547e+08 0.5
Loop time of 21.0916 on 4 procs for 300000 steps with 1000 atoms

# run_style
run_style verlet

# write restart
write_restart ./pgnpmf/46/equpmf22.res
System init for write_restart ...
Generated 0 of 1 mixed pair_coeff terms from geometric mixing rule
