LAMMPS (23 Jun 2022 - Update 1)
# Read restart
read_restart ./pgnpmf/46/equpmf19.res
Reading restart file ...
  restart file = 23 Jun 2022, LAMMPS = 23 Jun 2022
  restoring atom style atomic from restart
  orthogonal box = (2018.6149 2018.6149 2018.6149) to (2981.3851 2981.3851 2981.3851)
  restoring pair style table from restart
  1000 atoms
  read_restart CPU = 0.010 seconds

# Settings

pair_style table spline 9941

pair_coeff 1 1 ./pgnpmf/N20.txt DE_GNP 75.6
pair_coeff 2 2 ./pgnpmf/N100.txt DE_GNP 115.92
pair_coeff 1 2 ./pgnpmf/mixed_potential.txt DE_GNP 95.66

#Neigh_list Calc Frequency

neigh_modify delay 0 every 1 check yes

# Saving Frequency (50 frames)

variable ts_save equal 5000

# Dump
#dump_modify 1 first no sort id
dump 2 all cfg 50000 ./pgnpmf/46/equilibration/trajectory/dumpgen.tens_*.cfg mass type xs ys zs fx fy fz
dump_modify 2 element N20 N100

# thermo_style
thermo_style custom step temp press pe density ke etotal lx ly lz xlo xhi ylo yhi zlo zhi vol dt time cpu tpcpu spcpu cpuremain

# run info
timestep 0.5
thermo 200

# fix

fix 1 all momentum 1000 linear 1 1 1 angular
variable T equal 300
fix 2 all nvt temp 300 370000 100.0

run 100000
Generated 0 of 1 mixed pair_coeff terms from geometric mixing rule
Unused restart file global fix info:
  fix style: npt, fix ID: 5
  update every 1 steps, delay 0 steps, check yes
Step          Temp          Press          PotEng        Density         KinEng         TotEng           Lx             Ly             Lz            Xlo            Xhi            Ylo            Yhi            Zlo            Zhi           Volume           Dt            Time           CPU           T/CPU          S/CPU         CPULeft
13710000   310.135        1.6565953     -28942624       0.63631258     923.52908     -28941701       962.77013      962.77013      962.77013      2018.6149      2981.3851      2018.6149      2981.3851      2018.6149      2981.3851      8.9241699e+08  0.5            7060000        0              0              0              0
Averages over the last 251 of 501 rows, steps 13760000 to 13810000:
Temp Press PotEng Density KinEng TotEng Lx Ly Lz Xlo Xhi Ylo Yhi Zlo Zhi Volume Dt
277367 15.6063 -2.84638e+07 0.636313 825951 -2.76379e+07 962.77 962.77 962.77 2018.61 2981.39 2018.61 2981.39 2018.61 2981.39 8.92417e+08 0.5
Loop time of 5.24309 on 4 procs for 100000 steps with 1000 atoms

unfix 2

fix 3 all nvt temp 370000 370000 $(100.0*dt) #iso 1.0 1.0 $(1000.0*dt)
fix 3 all nvt temp 370000 370000 50

run 200000
Generated 0 of 1 mixed pair_coeff terms from geometric mixing rule
Step          Temp          Press          PotEng        Density         KinEng         TotEng           Lx             Ly             Lz            Xlo            Xhi            Ylo            Yhi            Zlo            Zhi           Volume           Dt            Time           CPU           T/CPU          S/CPU         CPULeft
13810000   375773.46      28.084059     -27999990       0.63631258     1118989.2     -26881000       962.77013      962.77013      962.77013      2018.6149      2981.3851      2018.6149      2981.3851      2018.6149      2981.3851      8.9241699e+08  0.5            7110000        0              0              0              0
Averages over the last 501 of 1001 rows, steps 13910000 to 14010000:
Temp Press PotEng Density KinEng TotEng Lx Ly Lz Xlo Xhi Ylo Yhi Zlo Zhi Volume Dt
369680 18.428 -2.70688e+07 0.636313 1.10084e+06 -2.5968e+07 962.77 962.77 962.77 2018.61 2981.39 2018.61 2981.39 2018.61 2981.39 8.92417e+08 0.5
Loop time of 10.4074 on 4 procs for 200000 steps with 1000 atoms

unfix 3

fix 4 all nvt temp 370000 300 100.0

run 100000
Generated 0 of 1 mixed pair_coeff terms from geometric mixing rule
Step          Temp          Press          PotEng        Density         KinEng         TotEng           Lx             Ly             Lz            Xlo            Xhi            Ylo            Yhi            Zlo            Zhi           Volume           Dt            Time           CPU           T/CPU          S/CPU         CPULeft
14010000   375653.32      12.553813     -27015840       0.63631258     1118631.5     -25897209       962.77013      962.77013      962.77013      2018.6149      2981.3851      2018.6149      2981.3851      2018.6149      2981.3851      8.9241699e+08  0.5            7210000        0              0              0              0
Averages over the last 251 of 501 rows, steps 14060000 to 14110000:
Temp Press PotEng Density KinEng TotEng Lx Ly Lz Xlo Xhi Ylo Yhi Zlo Zhi Volume Dt
93064.4 -142.553 -2.81903e+07 0.636313 277130 -2.79132e+07 962.77 962.77 962.77 2018.61 2981.39 2018.61 2981.39 2018.61 2981.39 8.92417e+08 0.5
Loop time of 5.21575 on 4 procs for 100000 steps with 1000 atoms

unfix 4

fix 5 all npt temp 300 300 $(100.0*dt) iso 1.0 1.0 $(1000.0*dt)
fix 5 all npt temp 300 300 50 iso 1.0 1.0 $(1000.0*dt)
fix 5 all npt temp 300 300 50 iso 1.0 1.0 500

run 300000
Generated 0 of 1 mixed pair_coeff terms from geometric mixing rule
Step          Temp          Press          PotEng        Density         KinEng         TotEng           Lx             Ly             Lz            Xlo            Xhi            Ylo            Yhi            Zlo            Zhi           Volume           Dt            Time           CPU           T/CPU          S/CPU         CPULeft
14110000   1353.5492     -162.96015     -28708828       0.63631258     4030.6384     -28704798       962.77013      962.77013      962.77013      2018.6149      2981.3851      2018.6149      2981.3851      2018.6149      2981.3851      8.9241699e+08  0.5            7260000        0              0              0              0
Averages over the last 751 of 1501 rows, steps 14260000 to 14410000:
Temp Press PotEng Density KinEng TotEng Lx Ly Lz Xlo Xhi Ylo Yhi Zlo Zhi Volume Dt
311.111 1.00666 -2.92221e+07 0.665285 926.437 -2.92212e+07 948.59 948.59 948.59 2025.7 2974.3 2025.7 2974.3 2025.7 2974.3 8.53569e+08 0.5
Loop time of 19.2677 on 4 procs for 300000 steps with 1000 atoms

# run_style
run_style verlet

# write restart
write_restart ./pgnpmf/46/equpmf20.res
System init for write_restart ...
Generated 0 of 1 mixed pair_coeff terms from geometric mixing rule
