LAMMPS (23 Jun 2022 - Update 1)
# Read restart
read_restart ./pgnpmf/trial2/46/equpmf71.res
Reading restart file ...
  restart file = 23 Jun 2022, LAMMPS = 23 Jun 2022
  restoring atom style atomic from restart
  orthogonal box = (2162.7034 2162.7034 2162.7034) to (2837.2966 2837.2966 2837.2966)
  restoring pair style table from restart
  1000 atoms
  read_restart CPU = 0.028 seconds

# Settings

pair_style table spline 9941

pair_coeff 1 1 ./pgnpmf/N20.txt DE_GNP 75.6
pair_coeff 2 2 ./pgnpmf/N100.txt DE_GNP 115.92
pair_coeff 1 2 ./pgnpmf/mixed_potential.txt DE_GNP 95.66

#Neigh_list Calc Frequency

neigh_modify delay 0 every 1 check yes

# computes
compute vor all voronoi/atom

# Saving Frequency (50 frames)
variable ts_save equal 5000

# Dump
dump 1 all custom 100000 ./pgnpmf/trial2/46/voronoi/voronoi_1_1.custom type x y z ix iy iz c_vor[1] c_vor[2]
dump_modify 1 first no sort id
#dump_modify 2 element N20 N100

# thermo_style
thermo_style custom step temp press pe density ke etotal lx ly lz xlo xhi ylo yhi zlo zhi vol dt time cpu tpcpu spcpu cpuremain

# run info
timestep 0.5
thermo 200

# fix

fix 1 all momentum 1000 linear 1 1 1 angular
variable T equal 300
fix 2 all nvt temp 300 300 100.0

run 100000
Generated 0 of 1 mixed pair_coeff terms from geometric mixing rule
Unused restart file global fix info:
  fix style: npt, fix ID: 5
  update every 1 steps, delay 0 steps, check yes
Step          Temp          Press          PotEng        Density         KinEng         TotEng           Lx             Ly             Lz            Xlo            Xhi            Ylo            Yhi            Zlo            Zhi           Volume           Dt            Time           CPU           T/CPU          S/CPU         CPULeft
50110000   296.18884      3.3173239     -39202501       1.8497483      881.99979     -39201619       674.59311      674.59311      674.59311      2162.7034      2837.2966      2162.7034      2837.2966      2162.7034      2837.2966      3.0699105e+08  0.5            25260000       0              0              0              0
Averages over the last 251 of 501 rows, steps 50160000 to 50210000:
Temp Press PotEng Density KinEng TotEng Lx Ly Lz Xlo Xhi Ylo Yhi Zlo Zhi Volume Dt
300.214 -1.00933 -3.92191e+07 1.84975 893.985 -3.92182e+07 674.593 674.593 674.593 2162.7 2837.3 2162.7 2837.3 2162.7 2837.3 3.06991e+08 0.5
Loop time of 7.57581 on 4 procs for 100000 steps with 1000 atoms

# run_style
run_style verlet
