LAMMPS (23 Jun 2022 - Update 1)
# Read restart
read_restart ./pgnpmf/700300/equpmf60.res
Reading restart file ...
  restart file = 23 Jun 2022, LAMMPS = 23 Jun 2022
  restoring atom style atomic from restart
  orthogonal box = (2201.665 2201.665 2201.665) to (2798.335 2798.335 2798.335)
  restoring pair style table from restart
  1000 atoms
  read_restart CPU = 0.014 seconds

# Settings

pair_style table spline 9941

pair_coeff 1 1 ./pgnpmf/N20.txt DE_GNP 75.6
pair_coeff 2 2 ./pgnpmf/N100.txt DE_GNP 115.92
pair_coeff 1 2 ./pgnpmf/mixed_potential.txt DE_GNP 95.66

#Neigh_list Calc Frequency

neigh_modify delay 0 every 1 check yes

# Saving Frequency (50 frames)

variable ts_save equal 5000

# Dump
#dump_modify 1 first no sort id
#dump 2 all cfg 50000 ./equilibration/trajectory/ovito/dumpgen.tens_*.cfg mass type xs ys zs fx fy fz

# thermo_style
thermo_style custom step temp press pe density ke etotal lx ly lz xlo xhi ylo yhi zlo zhi vol dt time cpu tpcpu spcpu cpuremain

# run info
timestep 0.5
thermo 200

# fix

fix 1 all momentum 1000 linear 1 1 1 angular
variable T equal 300
fix 2 all nvt temp 300 370000 100.0

run 100000
Generated 0 of 1 mixed pair_coeff terms from geometric mixing rule
Unused restart file global fix info:
  fix style: npt, fix ID: 5
  update every 1 steps, delay 0 steps, check yes
Step          Temp          Press          PotEng        Density         KinEng         TotEng           Lx             Ly             Lz            Xlo            Xhi            Ylo            Yhi            Zlo            Zhi           Volume           Dt            Time           CPU           T/CPU          S/CPU         CPULeft
42005000   304.89765     -2.7169231     -21964879       2.2037305      907.93312     -21963971       596.67         596.67         596.67         2201.665       2798.335       2201.665       2798.335       2201.665       2798.335       2.1242352e+08  0.5            21005000       0              0              0              0
Averages over the last 251 of 501 rows, steps 42055000 to 42105000:
Temp Press PotEng Density KinEng TotEng Lx Ly Lz Xlo Xhi Ylo Yhi Zlo Zhi Volume Dt
277479 3142.31 -2.10932e+07 2.20373 826286 -2.02669e+07 596.67 596.67 596.67 2201.66 2798.34 2201.66 2798.34 2201.66 2798.34 2.12424e+08 0.5
Loop time of 7.33866 on 4 procs for 100000 steps with 1000 atoms

unfix 2

fix 3 all nvt temp 370000 370000 $(100.0*dt) #iso 1.0 1.0 $(1000.0*dt)
fix 3 all nvt temp 370000 370000 50

run 200000
Generated 0 of 1 mixed pair_coeff terms from geometric mixing rule
Step          Temp          Press          PotEng        Density         KinEng         TotEng           Lx             Ly             Lz            Xlo            Xhi            Ylo            Yhi            Zlo            Zhi           Volume           Dt            Time           CPU           T/CPU          S/CPU         CPULeft
42105000   375153.63      3689.4964     -20948863       2.2037305      1117143.5     -19831720       596.67         596.67         596.67         2201.665       2798.335       2201.665       2798.335       2201.665       2798.335       2.1242352e+08  0.5            21055000       0              0              0              0
Averages over the last 501 of 1001 rows, steps 42205000 to 42305000:
Temp Press PotEng Density KinEng TotEng Lx Ly Lz Xlo Xhi Ylo Yhi Zlo Zhi Volume Dt
369975 3738.87 -2.08206e+07 2.20373 1.10172e+06 -1.97189e+07 596.67 596.67 596.67 2201.66 2798.34 2201.66 2798.34 2201.66 2798.34 2.12424e+08 0.5
Loop time of 14.7845 on 4 procs for 200000 steps with 1000 atoms

unfix 3

fix 4 all nvt temp 370000 300 100.0

run 100000
Generated 0 of 1 mixed pair_coeff terms from geometric mixing rule
Step          Temp          Press          PotEng        Density         KinEng         TotEng           Lx             Ly             Lz            Xlo            Xhi            Ylo            Yhi            Zlo            Zhi           Volume           Dt            Time           CPU           T/CPU          S/CPU         CPULeft
42305000   363414.81      3696.8139     -20813818       2.2037305      1082187.2     -19731631       596.67         596.67         596.67         2201.665       2798.335       2201.665       2798.335       2201.665       2798.335       2.1242352e+08  0.5            21155000       0              0              0              0
Averages over the last 251 of 501 rows, steps 42355000 to 42405000:
Temp Press PotEng Density KinEng TotEng Lx Ly Lz Xlo Xhi Ylo Yhi Zlo Zhi Volume Dt
93253.5 1119.21 -2.15512e+07 2.20373 277693 -2.12735e+07 596.67 596.67 596.67 2201.66 2798.34 2201.66 2798.34 2201.66 2798.34 2.12424e+08 0.5
Loop time of 7.37965 on 4 procs for 100000 steps with 1000 atoms

unfix 4

fix 5 all npt temp 300 300 $(100.0*dt) iso 1.0 1.0 $(1000.0*dt)
fix 5 all npt temp 300 300 50 iso 1.0 1.0 $(1000.0*dt)
fix 5 all npt temp 300 300 50 iso 1.0 1.0 500

run 300000
Generated 0 of 1 mixed pair_coeff terms from geometric mixing rule
Step          Temp          Press          PotEng        Density         KinEng         TotEng           Lx             Ly             Lz            Xlo            Xhi            Ylo            Yhi            Zlo            Zhi           Volume           Dt            Time           CPU           T/CPU          S/CPU         CPULeft
42405000   1384.7309      169.06753     -21827531       2.2037305      4123.4921     -21823408       596.67         596.67         596.67         2201.665       2798.335       2201.665       2798.335       2201.665       2798.335       2.1242352e+08  0.5            21205000       0              0              0              0
Averages over the last 751 of 1501 rows, steps 42555000 to 42705000:
Temp Press PotEng Density KinEng TotEng Lx Ly Lz Xlo Xhi Ylo Yhi Zlo Zhi Volume Dt
300.074 1.19531 -2.18809e+07 2.20066 893.568 -2.188e+07 596.947 596.947 596.947 2201.53 2798.47 2201.53 2798.47 2201.53 2798.47 2.12719e+08 0.5
Loop time of 26.0784 on 4 procs for 300000 steps with 1000 atoms

# run_style
run_style verlet

# write restart
write_restart ./pgnpmf/700300/equpmf61.res
System init for write_restart ...
Generated 0 of 1 mixed pair_coeff terms from geometric mixing rule
