LAMMPS (23 Jun 2022 - Update 1)
# Read restart
read_restart ./pgnpmf/700300/equpmf58.res
Reading restart file ...
  restart file = 23 Jun 2022, LAMMPS = 23 Jun 2022
  restoring atom style atomic from restart
  orthogonal box = (2201.4507 2201.4507 2201.4507) to (2798.5493 2798.5493 2798.5493)
  restoring pair style table from restart
  1000 atoms
  read_restart CPU = 0.013 seconds

# Settings

pair_style table spline 9941

pair_coeff 1 1 ./pgnpmf/N20.txt DE_GNP 75.6
pair_coeff 2 2 ./pgnpmf/N100.txt DE_GNP 115.92
pair_coeff 1 2 ./pgnpmf/mixed_potential.txt DE_GNP 95.66

#Neigh_list Calc Frequency

neigh_modify delay 0 every 1 check yes

# Saving Frequency (50 frames)

variable ts_save equal 5000

# Dump
#dump_modify 1 first no sort id
#dump 2 all cfg 50000 ./equilibration/trajectory/ovito/dumpgen.tens_*.cfg mass type xs ys zs fx fy fz

# thermo_style
thermo_style custom step temp press pe density ke etotal lx ly lz xlo xhi ylo yhi zlo zhi vol dt time cpu tpcpu spcpu cpuremain

# run info
timestep 0.5
thermo 200

# fix

fix 1 all momentum 1000 linear 1 1 1 angular
variable T equal 300
fix 2 all nvt temp 300 370000 100.0

run 100000
Generated 0 of 1 mixed pair_coeff terms from geometric mixing rule
Unused restart file global fix info:
  fix style: npt, fix ID: 5
  update every 1 steps, delay 0 steps, check yes
Step          Temp          Press          PotEng        Density         KinEng         TotEng           Lx             Ly             Lz            Xlo            Xhi            Ylo            Yhi            Zlo            Zhi           Volume           Dt            Time           CPU           T/CPU          S/CPU         CPULeft
40605000   315.7372       6.4821434     -21843111       2.1989878      940.21146     -21842170       597.09865      597.09865      597.09865      2201.4507      2798.5493      2201.4507      2798.5493      2201.4507      2798.5493      2.1288167e+08  0.5            20305000       0              0              0              0
Averages over the last 251 of 501 rows, steps 40655000 to 40705000:
Temp Press PotEng Density KinEng TotEng Lx Ly Lz Xlo Xhi Ylo Yhi Zlo Zhi Volume Dt
277566 2998.91 -2.10789e+07 2.19899 826546 -2.02523e+07 597.099 597.099 597.099 2201.45 2798.55 2201.45 2798.55 2201.45 2798.55 2.12882e+08 0.5
Loop time of 7.30905 on 4 procs for 100000 steps with 1000 atoms

unfix 2

fix 3 all nvt temp 370000 370000 $(100.0*dt) #iso 1.0 1.0 $(1000.0*dt)
fix 3 all nvt temp 370000 370000 50

run 200000
Generated 0 of 1 mixed pair_coeff terms from geometric mixing rule
Step          Temp          Press          PotEng        Density         KinEng         TotEng           Lx             Ly             Lz            Xlo            Xhi            Ylo            Yhi            Zlo            Zhi           Volume           Dt            Time           CPU           T/CPU          S/CPU         CPULeft
40705000   367336.04      3701.3283     -20840330       2.1989878      1093864       -19746466       597.09865      597.09865      597.09865      2201.4507      2798.5493      2201.4507      2798.5493      2201.4507      2798.5493      2.1288167e+08  0.5            20355000       0              0              0              0
Averages over the last 501 of 1001 rows, steps 40805000 to 40905000:
Temp Press PotEng Density KinEng TotEng Lx Ly Lz Xlo Xhi Ylo Yhi Zlo Zhi Volume Dt
369953 3695.11 -2.08083e+07 2.19899 1.10166e+06 -1.97067e+07 597.099 597.099 597.099 2201.45 2798.55 2201.45 2798.55 2201.45 2798.55 2.12882e+08 0.5
Loop time of 14.6913 on 4 procs for 200000 steps with 1000 atoms

unfix 3

fix 4 all nvt temp 370000 300 100.0

run 100000
Generated 0 of 1 mixed pair_coeff terms from geometric mixing rule
Step          Temp          Press          PotEng        Density         KinEng         TotEng           Lx             Ly             Lz            Xlo            Xhi            Ylo            Yhi            Zlo            Zhi           Volume           Dt            Time           CPU           T/CPU          S/CPU         CPULeft
40905000   365590.51      3675.7524     -20787551       2.1989878      1088666.1     -19698885       597.09865      597.09865      597.09865      2201.4507      2798.5493      2201.4507      2798.5493      2201.4507      2798.5493      2.1288167e+08  0.5            20455000       0              0              0              0
Averages over the last 251 of 501 rows, steps 40955000 to 41005000:
Temp Press PotEng Density KinEng TotEng Lx Ly Lz Xlo Xhi Ylo Yhi Zlo Zhi Volume Dt
92981.2 1003.98 -2.15376e+07 2.19899 276882 -2.12607e+07 597.099 597.099 597.099 2201.45 2798.55 2201.45 2798.55 2201.45 2798.55 2.12882e+08 0.5
Loop time of 7.34239 on 4 procs for 100000 steps with 1000 atoms

unfix 4

fix 5 all npt temp 300 300 $(100.0*dt) iso 1.0 1.0 $(1000.0*dt)
fix 5 all npt temp 300 300 50 iso 1.0 1.0 $(1000.0*dt)
fix 5 all npt temp 300 300 50 iso 1.0 1.0 500

run 300000
Generated 0 of 1 mixed pair_coeff terms from geometric mixing rule
Step          Temp          Press          PotEng        Density         KinEng         TotEng           Lx             Ly             Lz            Xlo            Xhi            Ylo            Yhi            Zlo            Zhi           Volume           Dt            Time           CPU           T/CPU          S/CPU         CPULeft
41005000   1397.5528      82.683801     -21805986       2.1989878      4161.6736     -21801825       597.09865      597.09865      597.09865      2201.4507      2798.5493      2201.4507      2798.5493      2201.4507      2798.5493      2.1288167e+08  0.5            20505000       0              0              0              0
Averages over the last 751 of 1501 rows, steps 41155000 to 41305000:
Temp Press PotEng Density KinEng TotEng Lx Ly Lz Xlo Xhi Ylo Yhi Zlo Zhi Volume Dt
300.304 1.1979 -2.18582e+07 2.20117 894.253 -2.18573e+07 596.902 596.902 596.902 2201.55 2798.45 2201.55 2798.45 2201.55 2798.45 2.12671e+08 0.5
Loop time of 25.8821 on 4 procs for 300000 steps with 1000 atoms

# run_style
run_style verlet

# write restart
write_restart ./pgnpmf/700300/equpmf59.res
System init for write_restart ...
Generated 0 of 1 mixed pair_coeff terms from geometric mixing rule
