LAMMPS (23 Jun 2022 - Update 1)
# Read restart
read_restart ./pgnpmf/700300/equpmf36.res
Reading restart file ...
  restart file = 23 Jun 2022, LAMMPS = 23 Jun 2022
  restoring atom style atomic from restart
  orthogonal box = (2200.9254 2200.9254 2200.9254) to (2799.0746 2799.0746 2799.0746)
  restoring pair style table from restart
  1000 atoms
  read_restart CPU = 0.013 seconds

# Settings

pair_style table spline 9941

pair_coeff 1 1 ./pgnpmf/N20.txt DE_GNP 75.6
pair_coeff 2 2 ./pgnpmf/N100.txt DE_GNP 115.92
pair_coeff 1 2 ./pgnpmf/mixed_potential.txt DE_GNP 95.66

#Neigh_list Calc Frequency

neigh_modify delay 0 every 1 check yes

# Saving Frequency (50 frames)

variable ts_save equal 5000

# Dump
#dump_modify 1 first no sort id
#dump 2 all cfg 50000 ./equilibration/trajectory/ovito/dumpgen.tens_*.cfg mass type xs ys zs fx fy fz

# thermo_style
thermo_style custom step temp press pe density ke etotal lx ly lz xlo xhi ylo yhi zlo zhi vol dt time cpu tpcpu spcpu cpuremain

# run info
timestep 0.5
thermo 200

# fix

fix 1 all momentum 1000 linear 1 1 1 angular
variable T equal 300
fix 2 all nvt temp 300 370000 100.0

run 100000
Generated 0 of 1 mixed pair_coeff terms from geometric mixing rule
Unused restart file global fix info:
  fix style: npt, fix ID: 5
  update every 1 steps, delay 0 steps, check yes
Step          Temp          Press          PotEng        Density         KinEng         TotEng           Lx             Ly             Lz            Xlo            Xhi            Ylo            Yhi            Zlo            Zhi           Volume           Dt            Time           CPU           T/CPU          S/CPU         CPULeft
25205000   301.05346     -2.7913148     -21712457       2.1874207      896.4858      -21711561       598.14929      598.14929      598.14929      2200.9254      2799.0746      2200.9254      2799.0746      2200.9254      2799.0746      2.1400739e+08  0.5            12605000       0              0              0              0
Averages over the last 251 of 501 rows, steps 25255000 to 25305000:
Temp Press PotEng Density KinEng TotEng Lx Ly Lz Xlo Xhi Ylo Yhi Zlo Zhi Volume Dt
277445 2983.92 -2.10664e+07 2.18742 826183 -2.02402e+07 598.149 598.149 598.149 2200.93 2799.07 2200.93 2799.07 2200.93 2799.07 2.14007e+08 0.5
Loop time of 7.56838 on 4 procs for 100000 steps with 1000 atoms

unfix 2

fix 3 all nvt temp 370000 370000 $(100.0*dt) #iso 1.0 1.0 $(1000.0*dt)
fix 3 all nvt temp 370000 370000 50

run 200000
Generated 0 of 1 mixed pair_coeff terms from geometric mixing rule
Step          Temp          Press          PotEng        Density         KinEng         TotEng           Lx             Ly             Lz            Xlo            Xhi            Ylo            Yhi            Zlo            Zhi           Volume           Dt            Time           CPU           T/CPU          S/CPU         CPULeft
25305000   367354.7       3571.5856     -20793435       2.1874207      1093919.6     -19699516       598.14929      598.14929      598.14929      2200.9254      2799.0746      2200.9254      2799.0746      2200.9254      2799.0746      2.1400739e+08  0.5            12655000       0              0              0              0
Averages over the last 501 of 1001 rows, steps 25405000 to 25505000:
Temp Press PotEng Density KinEng TotEng Lx Ly Lz Xlo Xhi Ylo Yhi Zlo Zhi Volume Dt
370153 3630.14 -2.07274e+07 2.18742 1.10225e+06 -1.96251e+07 598.149 598.149 598.149 2200.93 2799.07 2200.93 2799.07 2200.93 2799.07 2.14007e+08 0.5
Loop time of 15.0929 on 4 procs for 200000 steps with 1000 atoms

unfix 3

fix 4 all nvt temp 370000 300 100.0

run 100000
Generated 0 of 1 mixed pair_coeff terms from geometric mixing rule
Step          Temp          Press          PotEng        Density         KinEng         TotEng           Lx             Ly             Lz            Xlo            Xhi            Ylo            Yhi            Zlo            Zhi           Volume           Dt            Time           CPU           T/CPU          S/CPU         CPULeft
25505000   364232.45      3530.2495     -20714400       2.1874207      1084622       -19629778       598.14929      598.14929      598.14929      2200.9254      2799.0746      2200.9254      2799.0746      2200.9254      2799.0746      2.1400739e+08  0.5            12755000       0              0              0              0
Averages over the last 251 of 501 rows, steps 25555000 to 25605000:
Temp Press PotEng Density KinEng TotEng Lx Ly Lz Xlo Xhi Ylo Yhi Zlo Zhi Volume Dt
92980.2 1010.5 -2.1484e+07 2.18742 276879 -2.12071e+07 598.149 598.149 598.149 2200.93 2799.07 2200.93 2799.07 2200.93 2799.07 2.14007e+08 0.5
Loop time of 7.56568 on 4 procs for 100000 steps with 1000 atoms

unfix 4

fix 5 all npt temp 300 300 $(100.0*dt) iso 1.0 1.0 $(1000.0*dt)
fix 5 all npt temp 300 300 50 iso 1.0 1.0 $(1000.0*dt)
fix 5 all npt temp 300 300 50 iso 1.0 1.0 500

run 300000
Generated 0 of 1 mixed pair_coeff terms from geometric mixing rule
Step          Temp          Press          PotEng        Density         KinEng         TotEng           Lx             Ly             Lz            Xlo            Xhi            Ylo            Yhi            Zlo            Zhi           Volume           Dt            Time           CPU           T/CPU          S/CPU         CPULeft
25605000   1387.6613      95.477712     -21731580       2.1874207      4132.2184     -21727448       598.14929      598.14929      598.14929      2200.9254      2799.0746      2200.9254      2799.0746      2200.9254      2799.0746      2.1400739e+08  0.5            12805000       0              0              0              0
Averages over the last 751 of 1501 rows, steps 25755000 to 25905000:
Temp Press PotEng Density KinEng TotEng Lx Ly Lz Xlo Xhi Ylo Yhi Zlo Zhi Volume Dt
300.355 1.04847 -2.18799e+07 2.19034 894.405 -2.1879e+07 597.883 597.883 597.883 2201.06 2798.94 2201.06 2798.94 2201.06 2798.94 2.13722e+08 0.5
Loop time of 26.5066 on 4 procs for 300000 steps with 1000 atoms

# run_style
run_style verlet

# write restart
write_restart ./pgnpmf/700300/equpmf37.res
System init for write_restart ...
Generated 0 of 1 mixed pair_coeff terms from geometric mixing rule
