LAMMPS (23 Jun 2022 - Update 1)
# Read restart
read_restart ./pgnpmf/700300/equpmf15.res
Reading restart file ...
  restart file = 23 Jun 2022, LAMMPS = 23 Jun 2022
  restoring atom style atomic from restart
  orthogonal box = (2054.6623 2054.6623 2054.6623) to (2945.3377 2945.3377 2945.3377)
  restoring pair style table from restart
  1000 atoms
  read_restart CPU = 0.014 seconds

# Settings

pair_style table spline 9941

pair_coeff 1 1 ./pgnpmf/N20.txt DE_GNP 75.6
pair_coeff 2 2 ./pgnpmf/N100.txt DE_GNP 115.92
pair_coeff 1 2 ./pgnpmf/mixed_potential.txt DE_GNP 95.66

#Neigh_list Calc Frequency

neigh_modify delay 0 every 1 check yes

# Saving Frequency (50 frames)

variable ts_save equal 5000

# Dump
#dump_modify 1 first no sort id
#dump 2 all cfg 50000 ./equilibration/trajectory/ovito/dumpgen.tens_*.cfg mass type xs ys zs fx fy fz

# thermo_style
thermo_style custom step temp press pe density ke etotal lx ly lz xlo xhi ylo yhi zlo zhi vol dt time cpu tpcpu spcpu cpuremain

# run info
timestep 0.5
thermo 200

# fix

fix 1 all momentum 1000 linear 1 1 1 angular
variable T equal 300
fix 2 all nvt temp 300 370000 100.0

run 100000
Generated 0 of 1 mixed pair_coeff terms from geometric mixing rule
Unused restart file global fix info:
  fix style: npt, fix ID: 5
  update every 1 steps, delay 0 steps, check yes
Step          Temp          Press          PotEng        Density         KinEng         TotEng           Lx             Ly             Lz            Xlo            Xhi            Ylo            Yhi            Zlo            Zhi           Volume           Dt            Time           CPU           T/CPU          S/CPU         CPULeft
10505000   312.56765      0.35080908    -13367301       0.66252586     930.77308     -13366370       890.67532      890.67532      890.67532      2054.6623      2945.3377      2054.6623      2945.3377      2054.6623      2945.3377      7.0657497e+08  0.5            5255000        0              0              0              0
Averages over the last 251 of 501 rows, steps 10555000 to 10605000:
Temp Press PotEng Density KinEng TotEng Lx Ly Lz Xlo Xhi Ylo Yhi Zlo Zhi Volume Dt
277279 44.4354 -1.33233e+07 0.662526 825689 -1.24977e+07 890.675 890.675 890.675 2054.66 2945.34 2054.66 2945.34 2054.66 2945.34 7.06575e+08 0.5
Loop time of 5.82 on 4 procs for 100000 steps with 1000 atoms

unfix 2

fix 3 all nvt temp 370000 370000 $(100.0*dt) #iso 1.0 1.0 $(1000.0*dt)
fix 3 all nvt temp 370000 370000 50

run 200000
Generated 0 of 1 mixed pair_coeff terms from geometric mixing rule
Step          Temp          Press          PotEng        Density         KinEng         TotEng           Lx             Ly             Lz            Xlo            Xhi            Ylo            Yhi            Zlo            Zhi           Volume           Dt            Time           CPU           T/CPU          S/CPU         CPULeft
10605000   378989.32      72.592298     -13073400       0.66252586     1128565.5     -11944834       890.67532      890.67532      890.67532      2054.6623      2945.3377      2054.6623      2945.3377      2054.6623      2945.3377      7.0657497e+08  0.5            5305000        0              0              0              0
Averages over the last 501 of 1001 rows, steps 10705000 to 10805000:
Temp Press PotEng Density KinEng TotEng Lx Ly Lz Xlo Xhi Ylo Yhi Zlo Zhi Volume Dt
370021 37.1315 -1.24787e+07 0.662526 1.10186e+06 -1.13768e+07 890.675 890.675 890.675 2054.66 2945.34 2054.66 2945.34 2054.66 2945.34 7.06575e+08 0.5
Loop time of 11.8523 on 4 procs for 200000 steps with 1000 atoms

unfix 3

fix 4 all nvt temp 370000 300 100.0

run 100000
Generated 0 of 1 mixed pair_coeff terms from geometric mixing rule
Step          Temp          Press          PotEng        Density         KinEng         TotEng           Lx             Ly             Lz            Xlo            Xhi            Ylo            Yhi            Zlo            Zhi           Volume           Dt            Time           CPU           T/CPU          S/CPU         CPULeft
10805000   372245         62.448753     -12492691       0.66252586     1108482       -11384209       890.67532      890.67532      890.67532      2054.6623      2945.3377      2054.6623      2945.3377      2054.6623      2945.3377      7.0657497e+08  0.5            5405000        0              0              0              0
Averages over the last 251 of 501 rows, steps 10855000 to 10905000:
Temp Press PotEng Density KinEng TotEng Lx Ly Lz Xlo Xhi Ylo Yhi Zlo Zhi Volume Dt
93012.5 -113.918 -1.32721e+07 0.662526 276975 -1.29951e+07 890.675 890.675 890.675 2054.66 2945.34 2054.66 2945.34 2054.66 2945.34 7.06575e+08 0.5
Loop time of 5.91335 on 4 procs for 100000 steps with 1000 atoms

unfix 4

fix 5 all npt temp 300 300 $(100.0*dt) iso 1.0 1.0 $(1000.0*dt)
fix 5 all npt temp 300 300 50 iso 1.0 1.0 $(1000.0*dt)
fix 5 all npt temp 300 300 50 iso 1.0 1.0 500

run 300000
Generated 0 of 1 mixed pair_coeff terms from geometric mixing rule
Step          Temp          Press          PotEng        Density         KinEng         TotEng           Lx             Ly             Lz            Xlo            Xhi            Ylo            Yhi            Zlo            Zhi           Volume           Dt            Time           CPU           T/CPU          S/CPU         CPULeft
10905000   1369.373      -180.86946     -13631275       0.66252586     4077.759      -13627197       890.67532      890.67532      890.67532      2054.6623      2945.3377      2054.6623      2945.3377      2054.6623      2945.3377      7.0657497e+08  0.5            5455000        0              0              0              0
Averages over the last 751 of 1501 rows, steps 11055000 to 11205000:
Temp Press PotEng Density KinEng TotEng Lx Ly Lz Xlo Xhi Ylo Yhi Zlo Zhi Volume Dt
313.559 0.982176 -1.42863e+07 0.720222 933.724 -1.42854e+07 866.237 866.237 866.237 2066.88 2933.12 2066.88 2933.12 2066.88 2933.12 6.50007e+08 0.5
Loop time of 22.0527 on 4 procs for 300000 steps with 1000 atoms

# run_style
run_style verlet

# write restart
write_restart ./pgnpmf/700300/equpmf16.res
System init for write_restart ...
Generated 0 of 1 mixed pair_coeff terms from geometric mixing rule
