LAMMPS (23 Jun 2022 - Update 1)
# Read restart
read_restart ./pgnpmf/700300/equpmf53.res
Reading restart file ...
  restart file = 23 Jun 2022, LAMMPS = 23 Jun 2022
  restoring atom style atomic from restart
  orthogonal box = (2201.4682 2201.4682 2201.4682) to (2798.5318 2798.5318 2798.5318)
  restoring pair style table from restart
  1000 atoms
  read_restart CPU = 0.013 seconds

# Settings

pair_style table spline 9941

pair_coeff 1 1 ./pgnpmf/N20.txt DE_GNP 75.6
pair_coeff 2 2 ./pgnpmf/N100.txt DE_GNP 115.92
pair_coeff 1 2 ./pgnpmf/mixed_potential.txt DE_GNP 95.66

#Neigh_list Calc Frequency

neigh_modify delay 0 every 1 check yes

# Saving Frequency (50 frames)

variable ts_save equal 5000

# Dump
#dump_modify 1 first no sort id
#dump 2 all cfg 50000 ./equilibration/trajectory/ovito/dumpgen.tens_*.cfg mass type xs ys zs fx fy fz

# thermo_style
thermo_style custom step temp press pe density ke etotal lx ly lz xlo xhi ylo yhi zlo zhi vol dt time cpu tpcpu spcpu cpuremain

# run info
timestep 0.5
thermo 200

# fix

fix 1 all momentum 1000 linear 1 1 1 angular
variable T equal 300
fix 2 all nvt temp 300 370000 100.0

run 100000
Generated 0 of 1 mixed pair_coeff terms from geometric mixing rule
Unused restart file global fix info:
  fix style: npt, fix ID: 5
  update every 1 steps, delay 0 steps, check yes
Step          Temp          Press          PotEng        Density         KinEng         TotEng           Lx             Ly             Lz            Xlo            Xhi            Ylo            Yhi            Zlo            Zhi           Volume           Dt            Time           CPU           T/CPU          S/CPU         CPULeft
37105000   303.20411     -1.0939751     -21898106       2.1993742      902.89007     -21897203       597.06368      597.06368      597.06368      2201.4682      2798.5318      2201.4682      2798.5318      2201.4682      2798.5318      2.1284427e+08  0.5            18555000       0              0              0              0
Averages over the last 251 of 501 rows, steps 37155000 to 37205000:
Temp Press PotEng Density KinEng TotEng Lx Ly Lz Xlo Xhi Ylo Yhi Zlo Zhi Volume Dt
277586 3030.86 -2.10897e+07 2.19937 826603 -2.02631e+07 597.064 597.064 597.064 2201.47 2798.53 2201.47 2798.53 2201.47 2798.53 2.12844e+08 0.5
Loop time of 7.41879 on 4 procs for 100000 steps with 1000 atoms

unfix 2

fix 3 all nvt temp 370000 370000 $(100.0*dt) #iso 1.0 1.0 $(1000.0*dt)
fix 3 all nvt temp 370000 370000 50

run 200000
Generated 0 of 1 mixed pair_coeff terms from geometric mixing rule
Step          Temp          Press          PotEng        Density         KinEng         TotEng           Lx             Ly             Lz            Xlo            Xhi            Ylo            Yhi            Zlo            Zhi           Volume           Dt            Time           CPU           T/CPU          S/CPU         CPULeft
37205000   382047.79      3779.4116     -20866471       2.1993742      1137673.1     -19728798       597.06368      597.06368      597.06368      2201.4682      2798.5318      2201.4682      2798.5318      2201.4682      2798.5318      2.1284427e+08  0.5            18605000       0              0              0              0
Averages over the last 501 of 1001 rows, steps 37305000 to 37405000:
Temp Press PotEng Density KinEng TotEng Lx Ly Lz Xlo Xhi Ylo Yhi Zlo Zhi Volume Dt
369909 3745.61 -2.0788e+07 2.19937 1.10153e+06 -1.96865e+07 597.064 597.064 597.064 2201.47 2798.53 2201.47 2798.53 2201.47 2798.53 2.12844e+08 0.5
Loop time of 14.8782 on 4 procs for 200000 steps with 1000 atoms

unfix 3

fix 4 all nvt temp 370000 300 100.0

run 100000
Generated 0 of 1 mixed pair_coeff terms from geometric mixing rule
Step          Temp          Press          PotEng        Density         KinEng         TotEng           Lx             Ly             Lz            Xlo            Xhi            Ylo            Yhi            Zlo            Zhi           Volume           Dt            Time           CPU           T/CPU          S/CPU         CPULeft
37405000   369015.33      3630.1019     -20792133       2.1993742      1098864.6     -19693268       597.06368      597.06368      597.06368      2201.4682      2798.5318      2201.4682      2798.5318      2201.4682      2798.5318      2.1284427e+08  0.5            18705000       0              0              0              0
Averages over the last 251 of 501 rows, steps 37455000 to 37505000:
Temp Press PotEng Density KinEng TotEng Lx Ly Lz Xlo Xhi Ylo Yhi Zlo Zhi Volume Dt
93014.2 1110.49 -2.15251e+07 2.19937 276980 -2.12481e+07 597.064 597.064 597.064 2201.47 2798.53 2201.47 2798.53 2201.47 2798.53 2.12844e+08 0.5
Loop time of 7.38796 on 4 procs for 100000 steps with 1000 atoms

unfix 4

fix 5 all npt temp 300 300 $(100.0*dt) iso 1.0 1.0 $(1000.0*dt)
fix 5 all npt temp 300 300 50 iso 1.0 1.0 $(1000.0*dt)
fix 5 all npt temp 300 300 50 iso 1.0 1.0 500

run 300000
Generated 0 of 1 mixed pair_coeff terms from geometric mixing rule
Step          Temp          Press          PotEng        Density         KinEng         TotEng           Lx             Ly             Lz            Xlo            Xhi            Ylo            Yhi            Zlo            Zhi           Volume           Dt            Time           CPU           T/CPU          S/CPU         CPULeft
37505000   1388.0297      187.06121     -21743297       2.1993742      4133.3154     -21739163       597.06368      597.06368      597.06368      2201.4682      2798.5318      2201.4682      2798.5318      2201.4682      2798.5318      2.1284427e+08  0.5            18755000       0              0              0              0
Averages over the last 751 of 1501 rows, steps 37655000 to 37805000:
Temp Press PotEng Density KinEng TotEng Lx Ly Lz Xlo Xhi Ylo Yhi Zlo Zhi Volume Dt
299.951 0.928061 -2.1821e+07 2.19656 893.204 -2.18201e+07 597.319 597.319 597.319 2201.34 2798.66 2201.34 2798.66 2201.34 2798.66 2.13117e+08 0.5
Loop time of 26.0587 on 4 procs for 300000 steps with 1000 atoms

# run_style
run_style verlet

# write restart
write_restart ./pgnpmf/700300/equpmf54.res
System init for write_restart ...
Generated 0 of 1 mixed pair_coeff terms from geometric mixing rule
