LAMMPS (23 Jun 2022 - Update 1)
# Read restart
read_restart ./pgnpmf/700300/equpmf69.res
Reading restart file ...
  restart file = 23 Jun 2022, LAMMPS = 23 Jun 2022
  restoring atom style atomic from restart
  orthogonal box = (2201.3824 2201.3824 2201.3824) to (2798.6176 2798.6176 2798.6176)
  restoring pair style table from restart
  1000 atoms
  read_restart CPU = 0.014 seconds

# Settings

pair_style table spline 9941

pair_coeff 1 1 ./pgnpmf/N20.txt DE_GNP 75.6
pair_coeff 2 2 ./pgnpmf/N100.txt DE_GNP 115.92
pair_coeff 1 2 ./pgnpmf/mixed_potential.txt DE_GNP 95.66

#Neigh_list Calc Frequency

neigh_modify delay 0 every 1 check yes

# Saving Frequency (50 frames)

variable ts_save equal 5000

# Dump
#dump_modify 1 first no sort id
#dump 2 all cfg 50000 ./equilibration/trajectory/ovito/dumpgen.tens_*.cfg mass type xs ys zs fx fy fz

# thermo_style
thermo_style custom step temp press pe density ke etotal lx ly lz xlo xhi ylo yhi zlo zhi vol dt time cpu tpcpu spcpu cpuremain

# run info
timestep 0.5
thermo 200

# fix

fix 1 all momentum 1000 linear 1 1 1 angular
variable T equal 300
fix 2 all nvt temp 300 370000 100.0

run 100000
Generated 0 of 1 mixed pair_coeff terms from geometric mixing rule
Unused restart file global fix info:
  fix style: npt, fix ID: 5
  update every 1 steps, delay 0 steps, check yes
Step          Temp          Press          PotEng        Density         KinEng         TotEng           Lx             Ly             Lz            Xlo            Xhi            Ylo            Yhi            Zlo            Zhi           Volume           Dt            Time           CPU           T/CPU          S/CPU         CPULeft
48305000   295.4875      -0.80823277    -21841468       2.1974806      879.91131     -21840589       597.23513      597.23513      597.23513      2201.3824      2798.6176      2201.3824      2798.6176      2201.3824      2798.6176      2.1302768e+08  0.5            24155000       0              0              0              0
Averages over the last 251 of 501 rows, steps 48355000 to 48405000:
Temp Press PotEng Density KinEng TotEng Lx Ly Lz Xlo Xhi Ylo Yhi Zlo Zhi Volume Dt
277206 2822.24 -2.10892e+07 2.19748 825472 -2.02637e+07 597.235 597.235 597.235 2201.38 2798.62 2201.38 2798.62 2201.38 2798.62 2.13028e+08 0.5
Loop time of 7.35745 on 4 procs for 100000 steps with 1000 atoms

unfix 2

fix 3 all nvt temp 370000 370000 $(100.0*dt) #iso 1.0 1.0 $(1000.0*dt)
fix 3 all nvt temp 370000 370000 50

run 200000
Generated 0 of 1 mixed pair_coeff terms from geometric mixing rule
Step          Temp          Press          PotEng        Density         KinEng         TotEng           Lx             Ly             Lz            Xlo            Xhi            Ylo            Yhi            Zlo            Zhi           Volume           Dt            Time           CPU           T/CPU          S/CPU         CPULeft
48405000   378103.74      3638.9019     -20879958       2.1974806      1125928.4     -19754030       597.23513      597.23513      597.23513      2201.3824      2798.6176      2201.3824      2798.6176      2201.3824      2798.6176      2.1302768e+08  0.5            24205000       0              0              0              0
Averages over the last 501 of 1001 rows, steps 48505000 to 48605000:
Temp Press PotEng Density KinEng TotEng Lx Ly Lz Xlo Xhi Ylo Yhi Zlo Zhi Volume Dt
369791 3626.24 -2.07577e+07 2.19748 1.10118e+06 -1.96565e+07 597.235 597.235 597.235 2201.38 2798.62 2201.38 2798.62 2201.38 2798.62 2.13028e+08 0.5
Loop time of 14.7781 on 4 procs for 200000 steps with 1000 atoms

unfix 3

fix 4 all nvt temp 370000 300 100.0

run 100000
Generated 0 of 1 mixed pair_coeff terms from geometric mixing rule
Step          Temp          Press          PotEng        Density         KinEng         TotEng           Lx             Ly             Lz            Xlo            Xhi            Ylo            Yhi            Zlo            Zhi           Volume           Dt            Time           CPU           T/CPU          S/CPU         CPULeft
48605000   364947.81      3655.252      -20751486       2.1974806      1086752.3     -19664734       597.23513      597.23513      597.23513      2201.3824      2798.6176      2201.3824      2798.6176      2201.3824      2798.6176      2.1302768e+08  0.5            24305000       0              0              0              0
Averages over the last 251 of 501 rows, steps 48655000 to 48705000:
Temp Press PotEng Density KinEng TotEng Lx Ly Lz Xlo Xhi Ylo Yhi Zlo Zhi Volume Dt
93171.2 967.333 -2.15141e+07 2.19748 277448 -2.12367e+07 597.235 597.235 597.235 2201.38 2798.62 2201.38 2798.62 2201.38 2798.62 2.13028e+08 0.5
Loop time of 7.34926 on 4 procs for 100000 steps with 1000 atoms

unfix 4

fix 5 all npt temp 300 300 $(100.0*dt) iso 1.0 1.0 $(1000.0*dt)
fix 5 all npt temp 300 300 50 iso 1.0 1.0 $(1000.0*dt)
fix 5 all npt temp 300 300 50 iso 1.0 1.0 500

run 300000
Generated 0 of 1 mixed pair_coeff terms from geometric mixing rule
Step          Temp          Press          PotEng        Density         KinEng         TotEng           Lx             Ly             Lz            Xlo            Xhi            Ylo            Yhi            Zlo            Zhi           Volume           Dt            Time           CPU           T/CPU          S/CPU         CPULeft
48705000   1389.5061      41.099809     -21753774       2.1974806      4137.7118     -21749636       597.23513      597.23513      597.23513      2201.3824      2798.6176      2201.3824      2798.6176      2201.3824      2798.6176      2.1302768e+08  0.5            24355000       0              0              0              0
Averages over the last 751 of 1501 rows, steps 48855000 to 49005000:
Temp Press PotEng Density KinEng TotEng Lx Ly Lz Xlo Xhi Ylo Yhi Zlo Zhi Volume Dt
300.252 1.15225 -2.18368e+07 2.2001 894.1 -2.18359e+07 596.998 596.998 596.998 2201.5 2798.5 2201.5 2798.5 2201.5 2798.5 2.12774e+08 0.5
Loop time of 25.9731 on 4 procs for 300000 steps with 1000 atoms

# run_style
run_style verlet

# write restart
write_restart ./pgnpmf/700300/equpmf70.res
System init for write_restart ...
Generated 0 of 1 mixed pair_coeff terms from geometric mixing rule
