LAMMPS (23 Jun 2022 - Update 1)
# Read restart
read_restart ./pgnpmf/700300/equpmf41.res
Reading restart file ...
  restart file = 23 Jun 2022, LAMMPS = 23 Jun 2022
  restoring atom style atomic from restart
  orthogonal box = (2200.9775 2200.9775 2200.9775) to (2799.0225 2799.0225 2799.0225)
  restoring pair style table from restart
  1000 atoms
  read_restart CPU = 0.015 seconds

# Settings

pair_style table spline 9941

pair_coeff 1 1 ./pgnpmf/N20.txt DE_GNP 75.6
pair_coeff 2 2 ./pgnpmf/N100.txt DE_GNP 115.92
pair_coeff 1 2 ./pgnpmf/mixed_potential.txt DE_GNP 95.66

#Neigh_list Calc Frequency

neigh_modify delay 0 every 1 check yes

# Saving Frequency (50 frames)

variable ts_save equal 5000

# Dump
#dump_modify 1 first no sort id
#dump 2 all cfg 50000 ./equilibration/trajectory/ovito/dumpgen.tens_*.cfg mass type xs ys zs fx fy fz

# thermo_style
thermo_style custom step temp press pe density ke etotal lx ly lz xlo xhi ylo yhi zlo zhi vol dt time cpu tpcpu spcpu cpuremain

# run info
timestep 0.5
thermo 200

# fix

fix 1 all momentum 1000 linear 1 1 1 angular
variable T equal 300
fix 2 all nvt temp 300 370000 100.0

run 100000
Generated 0 of 1 mixed pair_coeff terms from geometric mixing rule
Unused restart file global fix info:
  fix style: npt, fix ID: 5
  update every 1 steps, delay 0 steps, check yes
Step          Temp          Press          PotEng        Density         KinEng         TotEng           Lx             Ly             Lz            Xlo            Xhi            Ylo            Yhi            Zlo            Zhi           Volume           Dt            Time           CPU           T/CPU          S/CPU         CPULeft
28705000   312.48391      5.2835458     -21795358       2.188566       930.52373     -21794428       598.04493      598.04493      598.04493      2200.9775      2799.0225      2200.9775      2799.0225      2200.9775      2799.0225      2.1389539e+08  0.5            14355000       0              0              0              0
Averages over the last 251 of 501 rows, steps 28755000 to 28805000:
Temp Press PotEng Density KinEng TotEng Lx Ly Lz Xlo Xhi Ylo Yhi Zlo Zhi Volume Dt
277306 2916.65 -2.1055e+07 2.18857 825769 -2.02293e+07 598.045 598.045 598.045 2200.98 2799.02 2200.98 2799.02 2200.98 2799.02 2.13895e+08 0.5
Loop time of 7.24999 on 4 procs for 100000 steps with 1000 atoms

unfix 2

fix 3 all nvt temp 370000 370000 $(100.0*dt) #iso 1.0 1.0 $(1000.0*dt)
fix 3 all nvt temp 370000 370000 50

run 200000
Generated 0 of 1 mixed pair_coeff terms from geometric mixing rule
Step          Temp          Press          PotEng        Density         KinEng         TotEng           Lx             Ly             Lz            Xlo            Xhi            Ylo            Yhi            Zlo            Zhi           Volume           Dt            Time           CPU           T/CPU          S/CPU         CPULeft
28805000   370296.38      3566.3629     -20789229       2.188566       1102679.4     -19686550       598.04493      598.04493      598.04493      2200.9775      2799.0225      2200.9775      2799.0225      2200.9775      2799.0225      2.1389539e+08  0.5            14405000       0              0              0              0
Averages over the last 501 of 1001 rows, steps 28905000 to 29005000:
Temp Press PotEng Density KinEng TotEng Lx Ly Lz Xlo Xhi Ylo Yhi Zlo Zhi Volume Dt
370042 3671.45 -2.06844e+07 2.18857 1.10192e+06 -1.95825e+07 598.045 598.045 598.045 2200.98 2799.02 2200.98 2799.02 2200.98 2799.02 2.13895e+08 0.5
Loop time of 14.6941 on 4 procs for 200000 steps with 1000 atoms

unfix 3

fix 4 all nvt temp 370000 300 100.0

run 100000
Generated 0 of 1 mixed pair_coeff terms from geometric mixing rule
Step          Temp          Press          PotEng        Density         KinEng         TotEng           Lx             Ly             Lz            Xlo            Xhi            Ylo            Yhi            Zlo            Zhi           Volume           Dt            Time           CPU           T/CPU          S/CPU         CPULeft
29005000   364301.07      3585.2365     -20688841       2.188566       1084826.4     -19604015       598.04493      598.04493      598.04493      2200.9775      2799.0225      2200.9775      2799.0225      2200.9775      2799.0225      2.1389539e+08  0.5            14505000       0              0              0              0
Averages over the last 251 of 501 rows, steps 29055000 to 29105000:
Temp Press PotEng Density KinEng TotEng Lx Ly Lz Xlo Xhi Ylo Yhi Zlo Zhi Volume Dt
92914.9 1004.33 -2.14447e+07 2.18857 276685 -2.1168e+07 598.045 598.045 598.045 2200.98 2799.02 2200.98 2799.02 2200.98 2799.02 2.13895e+08 0.5
Loop time of 7.25624 on 4 procs for 100000 steps with 1000 atoms

unfix 4

fix 5 all npt temp 300 300 $(100.0*dt) iso 1.0 1.0 $(1000.0*dt)
fix 5 all npt temp 300 300 50 iso 1.0 1.0 $(1000.0*dt)
fix 5 all npt temp 300 300 50 iso 1.0 1.0 500

run 300000
Generated 0 of 1 mixed pair_coeff terms from geometric mixing rule
Step          Temp          Press          PotEng        Density         KinEng         TotEng           Lx             Ly             Lz            Xlo            Xhi            Ylo            Yhi            Zlo            Zhi           Volume           Dt            Time           CPU           T/CPU          S/CPU         CPULeft
29105000   1399.2799      72.121914     -21647320       2.188566       4166.8167     -21643153       598.04493      598.04493      598.04493      2200.9775      2799.0225      2200.9775      2799.0225      2200.9775      2799.0225      2.1389539e+08  0.5            14555000       0              0              0              0
Averages over the last 751 of 1501 rows, steps 29255000 to 29405000:
Temp Press PotEng Density KinEng TotEng Lx Ly Lz Xlo Xhi Ylo Yhi Zlo Zhi Volume Dt
300.023 0.789697 -2.1772e+07 2.19102 893.417 -2.17711e+07 597.821 597.821 597.821 2201.09 2798.91 2201.09 2798.91 2201.09 2798.91 2.13655e+08 0.5
Loop time of 25.7066 on 4 procs for 300000 steps with 1000 atoms

# run_style
run_style verlet

# write restart
write_restart ./pgnpmf/700300/equpmf42.res
System init for write_restart ...
Generated 0 of 1 mixed pair_coeff terms from geometric mixing rule
