LAMMPS (23 Jun 2022 - Update 1)
# Read restart
read_restart ./pgnpmf/700300/equpmf37.res
Reading restart file ...
  restart file = 23 Jun 2022, LAMMPS = 23 Jun 2022
  restoring atom style atomic from restart
  orthogonal box = (2201.0566 2201.0566 2201.0566) to (2798.9434 2798.9434 2798.9434)
  restoring pair style table from restart
  1000 atoms
  read_restart CPU = 0.015 seconds

# Settings

pair_style table spline 9941

pair_coeff 1 1 ./pgnpmf/N20.txt DE_GNP 75.6
pair_coeff 2 2 ./pgnpmf/N100.txt DE_GNP 115.92
pair_coeff 1 2 ./pgnpmf/mixed_potential.txt DE_GNP 95.66

#Neigh_list Calc Frequency

neigh_modify delay 0 every 1 check yes

# Saving Frequency (50 frames)

variable ts_save equal 5000

# Dump
#dump_modify 1 first no sort id
#dump 2 all cfg 50000 ./equilibration/trajectory/ovito/dumpgen.tens_*.cfg mass type xs ys zs fx fy fz

# thermo_style
thermo_style custom step temp press pe density ke etotal lx ly lz xlo xhi ylo yhi zlo zhi vol dt time cpu tpcpu spcpu cpuremain

# run info
timestep 0.5
thermo 200

# fix

fix 1 all momentum 1000 linear 1 1 1 angular
variable T equal 300
fix 2 all nvt temp 300 370000 100.0

run 100000
Generated 0 of 1 mixed pair_coeff terms from geometric mixing rule
Unused restart file global fix info:
  fix style: npt, fix ID: 5
  update every 1 steps, delay 0 steps, check yes
Step          Temp          Press          PotEng        Density         KinEng         TotEng           Lx             Ly             Lz            Xlo            Xhi            Ylo            Yhi            Zlo            Zhi           Volume           Dt            Time           CPU           T/CPU          S/CPU         CPULeft
25905000   288.50876     -11.769715     -21890041       2.190304       859.12982     -21889182       597.8867       597.8867       597.8867       2201.0566      2798.9434      2201.0566      2798.9434      2201.0566      2798.9434      2.1372567e+08  0.5            12955000       0              0              0              0
Averages over the last 251 of 501 rows, steps 25955000 to 26005000:
Temp Press PotEng Density KinEng TotEng Lx Ly Lz Xlo Xhi Ylo Yhi Zlo Zhi Volume Dt
277359 3013.65 -2.10425e+07 2.1903 825927 -2.02166e+07 597.887 597.887 597.887 2201.06 2798.94 2201.06 2798.94 2201.06 2798.94 2.13726e+08 0.5
Loop time of 7.26756 on 4 procs for 100000 steps with 1000 atoms

unfix 2

fix 3 all nvt temp 370000 370000 $(100.0*dt) #iso 1.0 1.0 $(1000.0*dt)
fix 3 all nvt temp 370000 370000 50

run 200000
Generated 0 of 1 mixed pair_coeff terms from geometric mixing rule
Step          Temp          Press          PotEng        Density         KinEng         TotEng           Lx             Ly             Lz            Xlo            Xhi            Ylo            Yhi            Zlo            Zhi           Volume           Dt            Time           CPU           T/CPU          S/CPU         CPULeft
26005000   353784.31      3649.3761     -20808397       2.190304       1053509.2     -19754887       597.8867       597.8867       597.8867       2201.0566      2798.9434      2201.0566      2798.9434      2201.0566      2798.9434      2.1372567e+08  0.5            13005000       0              0              0              0
Averages over the last 501 of 1001 rows, steps 26105000 to 26205000:
Temp Press PotEng Density KinEng TotEng Lx Ly Lz Xlo Xhi Ylo Yhi Zlo Zhi Volume Dt
370179 3719.7 -2.0735e+07 2.1903 1.10233e+06 -1.96327e+07 597.887 597.887 597.887 2201.06 2798.94 2201.06 2798.94 2201.06 2798.94 2.13726e+08 0.5
Loop time of 14.5578 on 4 procs for 200000 steps with 1000 atoms

unfix 3

fix 4 all nvt temp 370000 300 100.0

run 100000
Generated 0 of 1 mixed pair_coeff terms from geometric mixing rule
Step          Temp          Press          PotEng        Density         KinEng         TotEng           Lx             Ly             Lz            Xlo            Xhi            Ylo            Yhi            Zlo            Zhi           Volume           Dt            Time           CPU           T/CPU          S/CPU         CPULeft
26205000   363290.75      3603.6509     -20682711       2.190304       1081817.8     -19600894       597.8867       597.8867       597.8867       2201.0566      2798.9434      2201.0566      2798.9434      2201.0566      2798.9434      2.1372567e+08  0.5            13105000       0              0              0              0
Averages over the last 251 of 501 rows, steps 26255000 to 26305000:
Temp Press PotEng Density KinEng TotEng Lx Ly Lz Xlo Xhi Ylo Yhi Zlo Zhi Volume Dt
92866.7 1028.52 -2.14916e+07 2.1903 276541 -2.12151e+07 597.887 597.887 597.887 2201.06 2798.94 2201.06 2798.94 2201.06 2798.94 2.13726e+08 0.5
Loop time of 7.24325 on 4 procs for 100000 steps with 1000 atoms

unfix 4

fix 5 all npt temp 300 300 $(100.0*dt) iso 1.0 1.0 $(1000.0*dt)
fix 5 all npt temp 300 300 50 iso 1.0 1.0 $(1000.0*dt)
fix 5 all npt temp 300 300 50 iso 1.0 1.0 500

run 300000
Generated 0 of 1 mixed pair_coeff terms from geometric mixing rule
Step          Temp          Press          PotEng        Density         KinEng         TotEng           Lx             Ly             Lz            Xlo            Xhi            Ylo            Yhi            Zlo            Zhi           Volume           Dt            Time           CPU           T/CPU          S/CPU         CPULeft
26305000   1380.4679      102.67472     -21731523       2.190304       4110.7976     -21727412       597.8867       597.8867       597.8867       2201.0566      2798.9434      2201.0566      2798.9434      2201.0566      2798.9434      2.1372567e+08  0.5            13155000       0              0              0              0
Averages over the last 751 of 1501 rows, steps 26455000 to 26605000:
Temp Press PotEng Density KinEng TotEng Lx Ly Lz Xlo Xhi Ylo Yhi Zlo Zhi Volume Dt
300.065 0.996694 -2.1783e+07 2.19129 893.544 -2.17821e+07 597.797 597.797 597.797 2201.1 2798.9 2201.1 2798.9 2201.1 2798.9 2.1363e+08 0.5
Loop time of 25.6014 on 4 procs for 300000 steps with 1000 atoms

# run_style
run_style verlet

# write restart
write_restart ./pgnpmf/700300/equpmf38.res
System init for write_restart ...
Generated 0 of 1 mixed pair_coeff terms from geometric mixing rule
