LAMMPS (23 Jun 2022 - Update 1)
# Read restart
read_restart ./pgnpmf/700300/equpmf27.res
Reading restart file ...
  restart file = 23 Jun 2022, LAMMPS = 23 Jun 2022
  restoring atom style atomic from restart
  orthogonal box = (2188.9651 2188.9651 2188.9651) to (2811.0349 2811.0349 2811.0349)
  restoring pair style table from restart
  1000 atoms
  read_restart CPU = 0.015 seconds

# Settings

pair_style table spline 9941

pair_coeff 1 1 ./pgnpmf/N20.txt DE_GNP 75.6
pair_coeff 2 2 ./pgnpmf/N100.txt DE_GNP 115.92
pair_coeff 1 2 ./pgnpmf/mixed_potential.txt DE_GNP 95.66

#Neigh_list Calc Frequency

neigh_modify delay 0 every 1 check yes

# Saving Frequency (50 frames)

variable ts_save equal 5000

# Dump
#dump_modify 1 first no sort id
#dump 2 all cfg 50000 ./equilibration/trajectory/ovito/dumpgen.tens_*.cfg mass type xs ys zs fx fy fz

# thermo_style
thermo_style custom step temp press pe density ke etotal lx ly lz xlo xhi ylo yhi zlo zhi vol dt time cpu tpcpu spcpu cpuremain

# run info
timestep 0.5
thermo 200

# fix

fix 1 all momentum 1000 linear 1 1 1 angular
variable T equal 300
fix 2 all nvt temp 300 370000 100.0

run 100000
Generated 0 of 1 mixed pair_coeff terms from geometric mixing rule
Unused restart file global fix info:
  fix style: npt, fix ID: 5
  update every 1 steps, delay 0 steps, check yes
Step          Temp          Press          PotEng        Density         KinEng         TotEng           Lx             Ly             Lz            Xlo            Xhi            Ylo            Yhi            Zlo            Zhi           Volume           Dt            Time           CPU           T/CPU          S/CPU         CPULeft
18905000   308.58905     -2.7587724     -20411408       1.94466        918.92549     -20410489       622.06982      622.06982      622.06982      2188.9651      2811.0349      2188.9651      2811.0349      2188.9651      2811.0349      2.407229e+08   0.5            9455000        0              0              0              0
Averages over the last 251 of 501 rows, steps 18955000 to 19005000:
Temp Press PotEng Density KinEng TotEng Lx Ly Lz Xlo Xhi Ylo Yhi Zlo Zhi Volume Dt
277499 879.93 -1.99495e+07 1.94466 826344 -1.91231e+07 622.07 622.07 622.07 2188.97 2811.03 2188.97 2811.03 2188.97 2811.03 2.40723e+08 0.5
Loop time of 6.98061 on 4 procs for 100000 steps with 1000 atoms

unfix 2

fix 3 all nvt temp 370000 370000 $(100.0*dt) #iso 1.0 1.0 $(1000.0*dt)
fix 3 all nvt temp 370000 370000 50

run 200000
Generated 0 of 1 mixed pair_coeff terms from geometric mixing rule
Step          Temp          Press          PotEng        Density         KinEng         TotEng           Lx             Ly             Lz            Xlo            Xhi            Ylo            Yhi            Zlo            Zhi           Volume           Dt            Time           CPU           T/CPU          S/CPU         CPULeft
19005000   365820.16      1217.3124     -19773568       1.94466        1089350       -18684218       622.06982      622.06982      622.06982      2188.9651      2811.0349      2188.9651      2811.0349      2188.9651      2811.0349      2.407229e+08   0.5            9505000        0              0              0              0
Averages over the last 501 of 1001 rows, steps 19105000 to 19205000:
Temp Press PotEng Density KinEng TotEng Lx Ly Lz Xlo Xhi Ylo Yhi Zlo Zhi Volume Dt
370242 1209.44 -1.95709e+07 1.94466 1.10252e+06 -1.84684e+07 622.07 622.07 622.07 2188.97 2811.03 2188.97 2811.03 2188.97 2811.03 2.40723e+08 0.5
Loop time of 14.1679 on 4 procs for 200000 steps with 1000 atoms

unfix 3

fix 4 all nvt temp 370000 300 100.0

run 100000
Generated 0 of 1 mixed pair_coeff terms from geometric mixing rule
Step          Temp          Press          PotEng        Density         KinEng         TotEng           Lx             Ly             Lz            Xlo            Xhi            Ylo            Yhi            Zlo            Zhi           Volume           Dt            Time           CPU           T/CPU          S/CPU         CPULeft
19205000   354151.19      1219.0127     -19562156       1.94466        1054601.8     -18507554       622.06982      622.06982      622.06982      2188.9651      2811.0349      2188.9651      2811.0349      2188.9651      2811.0349      2.407229e+08   0.5            9605000        0              0              0              0
Averages over the last 251 of 501 rows, steps 19255000 to 19305000:
Temp Press PotEng Density KinEng TotEng Lx Ly Lz Xlo Xhi Ylo Yhi Zlo Zhi Volume Dt
93009.2 -758.216 -2.00495e+07 1.94466 276966 -1.97725e+07 622.07 622.07 622.07 2188.97 2811.03 2188.97 2811.03 2188.97 2811.03 2.40723e+08 0.5
Loop time of 7.0395 on 4 procs for 100000 steps with 1000 atoms

unfix 4

fix 5 all npt temp 300 300 $(100.0*dt) iso 1.0 1.0 $(1000.0*dt)
fix 5 all npt temp 300 300 50 iso 1.0 1.0 $(1000.0*dt)
fix 5 all npt temp 300 300 50 iso 1.0 1.0 500

run 300000
Generated 0 of 1 mixed pair_coeff terms from geometric mixing rule
Step          Temp          Press          PotEng        Density         KinEng         TotEng           Lx             Ly             Lz            Xlo            Xhi            Ylo            Yhi            Zlo            Zhi           Volume           Dt            Time           CPU           T/CPU          S/CPU         CPULeft
19305000   1367.6036     -1525.0319     -20261558       1.94466        4072.49       -20257486       622.06982      622.06982      622.06982      2188.9651      2811.0349      2188.9651      2811.0349      2188.9651      2811.0349      2.407229e+08   0.5            9655000        0              0              0              0
Averages over the last 751 of 1501 rows, steps 19455000 to 19605000:
Temp Press PotEng Density KinEng TotEng Lx Ly Lz Xlo Xhi Ylo Yhi Zlo Zhi Volume Dt
308.486 0.969864 -2.10667e+07 2.07962 918.619 -2.10658e+07 608.312 608.312 608.312 2195.84 2804.16 2195.84 2804.16 2195.84 2804.16 2.25103e+08 0.5
Loop time of 25.8398 on 4 procs for 300000 steps with 1000 atoms

# run_style
run_style verlet

# write restart
write_restart ./pgnpmf/700300/equpmf28.res
System init for write_restart ...
Generated 0 of 1 mixed pair_coeff terms from geometric mixing rule
