LAMMPS (23 Jun 2022 - Update 1)
# Read restart
read_restart ./pgnpmf/46/equpmf45.res
Reading restart file ...
  restart file = 23 Jun 2022, LAMMPS = 23 Jun 2022
  restoring atom style atomic from restart
  orthogonal box = (1617.3615 1617.3615 1617.3615) to (2382.6385 2382.6385 2382.6385)
  restoring pair style table from restart
  1000 atoms
  read_restart CPU = 0.004 seconds

# Settings

pair_style table spline 9941

pair_coeff 1 1 ./pgnpmf/N20.txt DE_GNP 75.6
pair_coeff 2 2 ./pgnpmf/N100.txt DE_GNP 115.92
pair_coeff 1 2 ./pgnpmf/mixed_potential.txt DE_GNP 95.66

#Neigh_list Calc Frequency

neigh_modify delay 0 every 1 check yes

# Saving Frequency (50 frames)

variable ts_save equal 5000

variable nts equal 5000/0.25
variable medium equal 20000*3
variable long equal 20000*5

# Dump
#dump_modify 1 first no sort id
dump 2 all cfg 50000 ./pgnpmf/46/equilibration/trajectory/dumpequ.tens_*.cfg mass type xs ys zs fx fy fz
dump_modify 2 element N20 N100

# thermo_style
thermo_style custom step temp press pe density ke etotal lx ly lz xlo xhi ylo yhi zlo zhi vol dt time cpu tpcpu spcpu cpuremain

# run info
timestep 0.25
thermo 5000

# fix

fix 1 all momentum 1000 linear 1 1 1 angular
variable T equal 300
fix 2 all nvt temp 300 370000 100.0

run 20000
Generated 0 of 1 mixed pair_coeff terms from geometric mixing rule
Unused restart file global fix info:
  fix style: npt, fix ID: 5
  update every 1 steps, delay 0 steps, check yes
Step          Temp          Press          PotEng        Density         KinEng         TotEng           Lx             Ly             Lz            Xlo            Xhi            Ylo            Yhi            Zlo            Zhi           Volume           Dt            Time           CPU           T/CPU          S/CPU         CPULeft
9060000   340.15995      0.88818748    -31777215       1.2670171      1012.9383     -31776202       765.27693      765.27693      765.27693      1617.3615      2382.6385      1617.3615      2382.6385      1617.3615      2382.6385      4.481835e+08   0.25           2310000        0              0              0              0
Loop time of 1.68803 on 4 procs for 20000 steps with 1000 atoms

unfix 2

fix 3 all nvt temp 370000 370000 $(100.0*dt) #iso 1.0 1.0 $(1000.0*dt)
fix 3 all nvt temp 370000 370000 25

run 100000
Generated 0 of 1 mixed pair_coeff terms from geometric mixing rule
Step          Temp          Press          PotEng        Density         KinEng         TotEng           Lx             Ly             Lz            Xlo            Xhi            Ylo            Yhi            Zlo            Zhi           Volume           Dt            Time           CPU           T/CPU          S/CPU         CPULeft
9080000   366224.03      53.660796     -31766059       1.2670171      1090552.6     -30675507       765.27693      765.27693      765.27693      1617.3615      2382.6385      1617.3615      2382.6385      1617.3615      2382.6385      4.481835e+08   0.25           2315000        0              0              0              0
Averages over the last 11 of 21 rows, steps 9130000 to 9180000:
Temp Press PotEng Density KinEng TotEng Lx Ly Lz Xlo Xhi Ylo Yhi Zlo Zhi Volume Dt
369370 180.853 -3.15224e+07 1.26702 1.09992e+06 -3.04225e+07 765.277 765.277 765.277 1617.36 2382.64 1617.36 2382.64 1617.36 2382.64 4.48184e+08 0.25
Loop time of 8.36373 on 4 procs for 100000 steps with 1000 atoms

unfix 3

fix 4 all nvt temp 370000 300 100.0

run 20000
Generated 0 of 1 mixed pair_coeff terms from geometric mixing rule
Step          Temp          Press          PotEng        Density         KinEng         TotEng           Lx             Ly             Lz            Xlo            Xhi            Ylo            Yhi            Zlo            Zhi           Volume           Dt            Time           CPU           T/CPU          S/CPU         CPULeft
9180000   363753.29      5.9971594     -31367766       1.2670171      1083195.2     -30284571       765.27693      765.27693      765.27693      1617.3615      2382.6385      1617.3615      2382.6385      1617.3615      2382.6385      4.481835e+08   0.25           2340000        0              0              0              0
Loop time of 1.62715 on 4 procs for 20000 steps with 1000 atoms

unfix 4

fix 5 all npt temp 300 300 $(100.0*dt) iso 1.0 1.0 $(1000.0*dt)
fix 5 all npt temp 300 300 25 iso 1.0 1.0 $(1000.0*dt)
fix 5 all npt temp 300 300 25 iso 1.0 1.0 250

run 60000
Generated 0 of 1 mixed pair_coeff terms from geometric mixing rule
Step          Temp          Press          PotEng        Density         KinEng         TotEng           Lx             Ly             Lz            Xlo            Xhi            Ylo            Yhi            Zlo            Zhi           Volume           Dt            Time           CPU           T/CPU          S/CPU         CPULeft
9200000   9150.0851     -666.92893     -31640628       1.2670171      27247.391     -31613380       765.27693      765.27693      765.27693      1617.3615      2382.6385      1617.3615      2382.6385      1617.3615      2382.6385      4.481835e+08   0.25           2345000        0              0              0              0
Averages over the last 7 of 13 rows, steps 9230000 to 9260000:
Temp Press PotEng Density KinEng TotEng Lx Ly Lz Xlo Xhi Ylo Yhi Zlo Zhi Volume Dt
343.385 1.50471 -3.22535e+07 1.31698 1022.54 -3.22525e+07 755.476 755.476 755.476 1622.26 2377.74 1622.26 2377.74 1622.26 2377.74 4.31184e+08 0.25
Loop time of 5.82881 on 4 procs for 60000 steps with 1000 atoms

# run_style
run_style verlet

# write restart
write_restart ./pgnpmf/46/equpmf46.res
System init for write_restart ...
Generated 0 of 1 mixed pair_coeff terms from geometric mixing rule
