LAMMPS (23 Jun 2022 - Update 1)
# Read restart
read_restart ./pgnpmf/46/equpmf22.res
Reading restart file ...
  restart file = 23 Jun 2022, LAMMPS = 23 Jun 2022
  restoring atom style atomic from restart
  orthogonal box = (1426.482 1426.482 1426.482) to (2573.518 2573.518 2573.518)
  restoring pair style table from restart
  1000 atoms
  read_restart CPU = 0.004 seconds

# Settings

pair_style table spline 9941

pair_coeff 1 1 ./pgnpmf/N20.txt DE_GNP 75.6
pair_coeff 2 2 ./pgnpmf/N100.txt DE_GNP 115.92
pair_coeff 1 2 ./pgnpmf/mixed_potential.txt DE_GNP 95.66

#Neigh_list Calc Frequency

neigh_modify delay 0 every 1 check yes

# Saving Frequency (50 frames)

variable ts_save equal 5000

variable nts equal 5000/0.25
variable medium equal 20000*3
variable long equal 20000*5

# Dump
#dump_modify 1 first no sort id
dump 2 all cfg 50000 ./pgnpmf/46/equilibration/trajectory/dumpequ.tens_*.cfg mass type xs ys zs fx fy fz
dump_modify 2 element N20 N100

# thermo_style
thermo_style custom step temp press pe density ke etotal lx ly lz xlo xhi ylo yhi zlo zhi vol dt time cpu tpcpu spcpu cpuremain

# run info
timestep 0.25
thermo 5000

# fix

fix 1 all momentum 1000 linear 1 1 1 angular
variable T equal 300
fix 2 all nvt temp 300 370000 100.0

run 20000
Generated 0 of 1 mixed pair_coeff terms from geometric mixing rule
Unused restart file global fix info:
  fix style: npt, fix ID: 5
  update every 1 steps, delay 0 steps, check yes
Step          Temp          Press          PotEng        Density         KinEng         TotEng           Lx             Ly             Lz            Xlo            Xhi            Ylo            Yhi            Zlo            Zhi           Volume           Dt            Time           CPU           T/CPU          S/CPU         CPULeft
4460000   336.13954      0.9611298     -12363712       0.37627665     1000.9661     -12362711       1147.0359      1147.0359      1147.0359      1426.482       2573.518       1426.482       2573.518       1426.482       2573.518       1.5091453e+09  0.25           1160000        0              0              0              0
Loop time of 0.99168 on 4 procs for 20000 steps with 1000 atoms

unfix 2

fix 3 all nvt temp 370000 370000 $(100.0*dt) #iso 1.0 1.0 $(1000.0*dt)
fix 3 all nvt temp 370000 370000 25

run 100000
Generated 0 of 1 mixed pair_coeff terms from geometric mixing rule
Step          Temp          Press          PotEng        Density         KinEng         TotEng           Lx             Ly             Lz            Xlo            Xhi            Ylo            Yhi            Zlo            Zhi           Volume           Dt            Time           CPU           T/CPU          S/CPU         CPULeft
4480000   367982.2       33.483313     -12327240       0.37627665     1095788.2     -11231452       1147.0359      1147.0359      1147.0359      1426.482       2573.518       1426.482       2573.518       1426.482       2573.518       1.5091453e+09  0.25           1165000        0              0              0              0
Averages over the last 11 of 21 rows, steps 4530000 to 4580000:
Temp Press PotEng Density KinEng TotEng Lx Ly Lz Xlo Xhi Ylo Yhi Zlo Zhi Volume Dt
364315 9.60016 -1.26575e+07 0.376277 1.08487e+06 -1.15726e+07 1147.04 1147.04 1147.04 1426.48 2573.52 1426.48 2573.52 1426.48 2573.52 1.50915e+09 0.25
Loop time of 5.0362 on 4 procs for 100000 steps with 1000 atoms

unfix 3

fix 4 all nvt temp 370000 300 100.0

run 20000
Generated 0 of 1 mixed pair_coeff terms from geometric mixing rule
Step          Temp          Press          PotEng        Density         KinEng         TotEng           Lx             Ly             Lz            Xlo            Xhi            Ylo            Yhi            Zlo            Zhi           Volume           Dt            Time           CPU           T/CPU          S/CPU         CPULeft
4580000   361571.07      15.307014     -12677752       0.37627665     1076696.9     -11601055       1147.0359      1147.0359      1147.0359      1426.482       2573.518       1426.482       2573.518       1426.482       2573.518       1.5091453e+09  0.25           1190000        0              0              0              0
Loop time of 1.00003 on 4 procs for 20000 steps with 1000 atoms

unfix 4

fix 5 all npt temp 300 300 $(100.0*dt) iso 1.0 1.0 $(1000.0*dt)
fix 5 all npt temp 300 300 25 iso 1.0 1.0 $(1000.0*dt)
fix 5 all npt temp 300 300 25 iso 1.0 1.0 250

run 60000
Generated 0 of 1 mixed pair_coeff terms from geometric mixing rule
Step          Temp          Press          PotEng        Density         KinEng         TotEng           Lx             Ly             Lz            Xlo            Xhi            Ylo            Yhi            Zlo            Zhi           Volume           Dt            Time           CPU           T/CPU          S/CPU         CPULeft
4600000   8573.1469     -95.849225     -12905373       0.37627665     25529.367     -12879843       1147.0359      1147.0359      1147.0359      1426.482       2573.518       1426.482       2573.518       1426.482       2573.518       1.5091453e+09  0.25           1195000        0              0              0              0
Averages over the last 7 of 13 rows, steps 4630000 to 4660000:
Temp Press PotEng Density KinEng TotEng Lx Ly Lz Xlo Xhi Ylo Yhi Zlo Zhi Volume Dt
340.722 0.959381 -1.35904e+07 0.40365 1014.61 -1.35894e+07 1120.51 1120.51 1120.51 1439.75 2560.25 1439.75 2560.25 1439.75 2560.25 1.40685e+09 0.25
Loop time of 3.93773 on 4 procs for 60000 steps with 1000 atoms

# run_style
run_style verlet

# write restart
write_restart ./pgnpmf/46/equpmf23.res
System init for write_restart ...
Generated 0 of 1 mixed pair_coeff terms from geometric mixing rule
