LAMMPS (23 Jun 2022 - Update 1)
# Read restart
read_restart ./pgnpmf/46/equpmf58.res
Reading restart file ...
  restart file = 23 Jun 2022, LAMMPS = 23 Jun 2022
  restoring atom style atomic from restart
  orthogonal box = (1655.341 1655.341 1655.341) to (2344.659 2344.659 2344.659)
  restoring pair style table from restart
  1000 atoms
  read_restart CPU = 0.004 seconds

# Settings

pair_style table spline 9941

pair_coeff 1 1 ./pgnpmf/N20.txt DE_GNP 75.6
pair_coeff 2 2 ./pgnpmf/N100.txt DE_GNP 115.92
pair_coeff 1 2 ./pgnpmf/mixed_potential.txt DE_GNP 95.66

#Neigh_list Calc Frequency

neigh_modify delay 0 every 1 check yes

# Saving Frequency (50 frames)

variable ts_save equal 5000

variable nts equal 5000/0.25
variable medium equal 20000*3
variable long equal 20000*5

# Dump
#dump_modify 1 first no sort id
dump 2 all cfg 50000 ./pgnpmf/46/equilibration/trajectory/dumpequ.tens_*.cfg mass type xs ys zs fx fy fz
dump_modify 2 element N20 N100

# thermo_style
thermo_style custom step temp press pe density ke etotal lx ly lz xlo xhi ylo yhi zlo zhi vol dt time cpu tpcpu spcpu cpuremain

# run info
timestep 0.25
thermo 5000

# fix

fix 1 all momentum 1000 linear 1 1 1 angular
variable T equal 300
fix 2 all nvt temp 300 370000 100.0

run 20000
Generated 0 of 1 mixed pair_coeff terms from geometric mixing rule
Unused restart file global fix info:
  fix style: npt, fix ID: 5
  update every 1 steps, delay 0 steps, check yes
Step          Temp          Press          PotEng        Density         KinEng         TotEng           Lx             Ly             Lz            Xlo            Xhi            Ylo            Yhi            Zlo            Zhi           Volume           Dt            Time           CPU           T/CPU          S/CPU         CPULeft
11660000   332.3675       1.2558028     -37104067       1.7337216      989.73366     -37103077       689.31806      689.31806      689.31806      1655.341       2344.659       1655.341       2344.659       1655.341       2344.659       3.2753594e+08  0.25           2960000        0              0              0              0
Loop time of 1.481 on 4 procs for 20000 steps with 1000 atoms

unfix 2

fix 3 all nvt temp 370000 370000 $(100.0*dt) #iso 1.0 1.0 $(1000.0*dt)
fix 3 all nvt temp 370000 370000 25

run 100000
Generated 0 of 1 mixed pair_coeff terms from geometric mixing rule
Step          Temp          Press          PotEng        Density         KinEng         TotEng           Lx             Ly             Lz            Xlo            Xhi            Ylo            Yhi            Zlo            Zhi           Volume           Dt            Time           CPU           T/CPU          S/CPU         CPULeft
11680000   369573.23      538.85575     -36902186       1.7337216      1100526       -35801660       689.31806      689.31806      689.31806      1655.341       2344.659       1655.341       2344.659       1655.341       2344.659       3.2753594e+08  0.25           2965000        0              0              0              0
Averages over the last 11 of 21 rows, steps 11730000 to 11780000:
Temp Press PotEng Density KinEng TotEng Lx Ly Lz Xlo Xhi Ylo Yhi Zlo Zhi Volume Dt
372828 1300.41 -3.66645e+07 1.73372 1.11022e+06 -3.55542e+07 689.318 689.318 689.318 1655.34 2344.66 1655.34 2344.66 1655.34 2344.66 3.27536e+08 0.25
Loop time of 7.58218 on 4 procs for 100000 steps with 1000 atoms

unfix 3

fix 4 all nvt temp 370000 300 100.0

run 20000
Generated 0 of 1 mixed pair_coeff terms from geometric mixing rule
Step          Temp          Press          PotEng        Density         KinEng         TotEng           Lx             Ly             Lz            Xlo            Xhi            Ylo            Yhi            Zlo            Zhi           Volume           Dt            Time           CPU           T/CPU          S/CPU         CPULeft
11780000   378905.1       1173.6702     -36682294       1.7337216      1128314.7     -35553979       689.31806      689.31806      689.31806      1655.341       2344.659       1655.341       2344.659       1655.341       2344.659       3.2753594e+08  0.25           2990000        0              0              0              0
Loop time of 1.49464 on 4 procs for 20000 steps with 1000 atoms

unfix 4

fix 5 all npt temp 300 300 $(100.0*dt) iso 1.0 1.0 $(1000.0*dt)
fix 5 all npt temp 300 300 25 iso 1.0 1.0 $(1000.0*dt)
fix 5 all npt temp 300 300 25 iso 1.0 1.0 250

run 60000
Generated 0 of 1 mixed pair_coeff terms from geometric mixing rule
Step          Temp          Press          PotEng        Density         KinEng         TotEng           Lx             Ly             Lz            Xlo            Xhi            Ylo            Yhi            Zlo            Zhi           Volume           Dt            Time           CPU           T/CPU          S/CPU         CPULeft
11800000   9548.741      -48.495503     -37099104       1.7337216      28434.52      -37070670       689.31806      689.31806      689.31806      1655.341       2344.659       1655.341       2344.659       1655.341       2344.659       3.2753594e+08  0.25           2995000        0              0              0              0
Averages over the last 7 of 13 rows, steps 11830000 to 11860000:
Temp Press PotEng Density KinEng TotEng Lx Ly Lz Xlo Xhi Ylo Yhi Zlo Zhi Volume Dt
333.922 0.375942 -3.74029e+07 1.74772 994.362 -3.74019e+07 687.473 687.473 687.473 1656.26 2343.74 1656.26 2343.74 1656.26 2343.74 3.24913e+08 0.25
Loop time of 5.33549 on 4 procs for 60000 steps with 1000 atoms

# run_style
run_style verlet

# write restart
write_restart ./pgnpmf/46/equpmf59.res
System init for write_restart ...
Generated 0 of 1 mixed pair_coeff terms from geometric mixing rule
