LAMMPS (23 Jun 2022 - Update 1)
# Read restart
read_restart ./pgnpmf/46/equpmf18.res
Reading restart file ...
  restart file = 23 Jun 2022, LAMMPS = 23 Jun 2022
  restoring atom style atomic from restart
  orthogonal box = (1354.0542 1354.0542 1354.0542) to (2645.9458 2645.9458 2645.9458)
  restoring pair style table from restart
  1000 atoms
  read_restart CPU = 0.005 seconds

# Settings

pair_style table spline 9941

pair_coeff 1 1 ./pgnpmf/N20.txt DE_GNP 75.6
pair_coeff 2 2 ./pgnpmf/N100.txt DE_GNP 115.92
pair_coeff 1 2 ./pgnpmf/mixed_potential.txt DE_GNP 95.66

#Neigh_list Calc Frequency

neigh_modify delay 0 every 1 check yes

# Saving Frequency (50 frames)

variable ts_save equal 5000

variable nts equal 5000/0.25
variable medium equal 20000*3
variable long equal 20000*5

# Dump
#dump_modify 1 first no sort id
dump 2 all cfg 50000 ./pgnpmf/46/equilibration/trajectory/dumpequ.tens_*.cfg mass type xs ys zs fx fy fz
dump_modify 2 element N20 N100

# thermo_style
thermo_style custom step temp press pe density ke etotal lx ly lz xlo xhi ylo yhi zlo zhi vol dt time cpu tpcpu spcpu cpuremain

# run info
timestep 0.25
thermo 5000

# fix

fix 1 all momentum 1000 linear 1 1 1 angular
variable T equal 300
fix 2 all nvt temp 300 370000 100.0

run 20000
Generated 0 of 1 mixed pair_coeff terms from geometric mixing rule
Unused restart file global fix info:
  fix style: npt, fix ID: 5
  update every 1 steps, delay 0 steps, check yes
Step          Temp          Press          PotEng        Density         KinEng         TotEng           Lx             Ly             Lz            Xlo            Xhi            Ylo            Yhi            Zlo            Zhi           Volume           Dt            Time           CPU           T/CPU          S/CPU         CPULeft
3660000   333.38343      0.67091089    -8465896.4      0.26336625     992.75893     -8464903.6      1291.8916      1291.8916      1291.8916      1354.0542      2645.9458      1354.0542      2645.9458      1354.0542      2645.9458      2.1561462e+09  0.25           960000         0              0              0              0
Loop time of 0.877914 on 4 procs for 20000 steps with 1000 atoms

unfix 2

fix 3 all nvt temp 370000 370000 $(100.0*dt) #iso 1.0 1.0 $(1000.0*dt)
fix 3 all nvt temp 370000 370000 25

run 100000
Generated 0 of 1 mixed pair_coeff terms from geometric mixing rule
Step          Temp          Press          PotEng        Density         KinEng         TotEng           Lx             Ly             Lz            Xlo            Xhi            Ylo            Yhi            Zlo            Zhi           Volume           Dt            Time           CPU           T/CPU          S/CPU         CPULeft
3680000   369692.88      52.788422     -8436284.9      0.26336625     1100882.3     -7335402.7      1291.8916      1291.8916      1291.8916      1354.0542      2645.9458      1354.0542      2645.9458      1354.0542      2645.9458      2.1561462e+09  0.25           965000         0              0              0              0
Averages over the last 11 of 21 rows, steps 3730000 to 3780000:
Temp Press PotEng Density KinEng TotEng Lx Ly Lz Xlo Xhi Ylo Yhi Zlo Zhi Volume Dt
372595 13.4249 -8.50825e+06 0.263366 1.10952e+06 -7.39872e+06 1291.89 1291.89 1291.89 1354.05 2645.95 1354.05 2645.95 1354.05 2645.95 2.15615e+09 0.25
Loop time of 4.41777 on 4 procs for 100000 steps with 1000 atoms

unfix 3

fix 4 all nvt temp 370000 300 100.0

run 20000
Generated 0 of 1 mixed pair_coeff terms from geometric mixing rule
Step          Temp          Press          PotEng        Density         KinEng         TotEng           Lx             Ly             Lz            Xlo            Xhi            Ylo            Yhi            Zlo            Zhi           Volume           Dt            Time           CPU           T/CPU          S/CPU         CPULeft
3780000   358117.6       9.6902553     -8386192.7      0.26336625     1066413       -7319779.6      1291.8916      1291.8916      1291.8916      1354.0542      2645.9458      1354.0542      2645.9458      1354.0542      2645.9458      2.1561462e+09  0.25           990000         0              0              0              0
Loop time of 0.863954 on 4 procs for 20000 steps with 1000 atoms

unfix 4

fix 5 all npt temp 300 300 $(100.0*dt) iso 1.0 1.0 $(1000.0*dt)
fix 5 all npt temp 300 300 25 iso 1.0 1.0 $(1000.0*dt)
fix 5 all npt temp 300 300 25 iso 1.0 1.0 250

run 60000
Generated 0 of 1 mixed pair_coeff terms from geometric mixing rule
Step          Temp          Press          PotEng        Density         KinEng         TotEng           Lx             Ly             Lz            Xlo            Xhi            Ylo            Yhi            Zlo            Zhi           Volume           Dt            Time           CPU           T/CPU          S/CPU         CPULeft
3800000   8318.0997     -44.915488     -8499166.4      0.26336625     24769.88      -8474396.5      1291.8916      1291.8916      1291.8916      1354.0542      2645.9458      1354.0542      2645.9458      1354.0542      2645.9458      2.1561462e+09  0.25           995000         0              0              0              0
Averages over the last 7 of 13 rows, steps 3830000 to 3860000:
Temp Press PotEng Density KinEng TotEng Lx Ly Lz Xlo Xhi Ylo Yhi Zlo Zhi Volume Dt
334.642 0.942127 -9.04527e+06 0.285742 996.507 -9.04428e+06 1257.26 1257.26 1257.26 1371.37 2628.63 1371.37 2628.63 1371.37 2628.63 1.98741e+09 0.25
Loop time of 3.52195 on 4 procs for 60000 steps with 1000 atoms

# run_style
run_style verlet

# write restart
write_restart ./pgnpmf/46/equpmf19.res
System init for write_restart ...
Generated 0 of 1 mixed pair_coeff terms from geometric mixing rule
