LAMMPS (23 Jun 2022 - Update 1)
# Read restart
read_restart ./pgnpmf/46/equpmf60.res
Reading restart file ...
  restart file = 23 Jun 2022, LAMMPS = 23 Jun 2022
  restoring atom style atomic from restart
  orthogonal box = (1656.8956 1656.8956 1656.8956) to (2343.1044 2343.1044 2343.1044)
  restoring pair style table from restart
  1000 atoms
  read_restart CPU = 0.007 seconds

# Settings

pair_style table spline 9941

pair_coeff 1 1 ./pgnpmf/N20.txt DE_GNP 75.6
pair_coeff 2 2 ./pgnpmf/N100.txt DE_GNP 115.92
pair_coeff 1 2 ./pgnpmf/mixed_potential.txt DE_GNP 95.66

#Neigh_list Calc Frequency

neigh_modify delay 0 every 1 check yes

# Saving Frequency (50 frames)

variable ts_save equal 5000

variable nts equal 5000/0.25
variable medium equal 20000*3
variable long equal 20000*5

# Dump
#dump_modify 1 first no sort id
dump 2 all cfg 50000 ./pgnpmf/46/equilibration/trajectory/dumpequ.tens_*.cfg mass type xs ys zs fx fy fz
dump_modify 2 element N20 N100

# thermo_style
thermo_style custom step temp press pe density ke etotal lx ly lz xlo xhi ylo yhi zlo zhi vol dt time cpu tpcpu spcpu cpuremain

# run info
timestep 0.25
thermo 5000

# fix

fix 1 all momentum 1000 linear 1 1 1 angular
variable T equal 300
fix 2 all nvt temp 300 370000 100.0

run 20000
Generated 0 of 1 mixed pair_coeff terms from geometric mixing rule
Unused restart file global fix info:
  fix style: npt, fix ID: 5
  update every 1 steps, delay 0 steps, check yes
Step          Temp          Press          PotEng        Density         KinEng         TotEng           Lx             Ly             Lz            Xlo            Xhi            Ylo            Yhi            Zlo            Zhi           Volume           Dt            Time           CPU           T/CPU          S/CPU         CPULeft
12060000   330.30226      3.3933585     -37495225       1.7573947      983.58372     -37494241       686.20889      686.20889      686.20889      1656.8956      2343.1044      1656.8956      2343.1044      1656.8956      2343.1044      3.2312386e+08  0.25           3060000        0              0              0              0
Loop time of 1.50478 on 4 procs for 20000 steps with 1000 atoms

unfix 2

fix 3 all nvt temp 370000 370000 $(100.0*dt) #iso 1.0 1.0 $(1000.0*dt)
fix 3 all nvt temp 370000 370000 25

run 100000
Generated 0 of 1 mixed pair_coeff terms from geometric mixing rule
Step          Temp          Press          PotEng        Density         KinEng         TotEng           Lx             Ly             Lz            Xlo            Xhi            Ylo            Yhi            Zlo            Zhi           Volume           Dt            Time           CPU           T/CPU          S/CPU         CPULeft
12080000   370599.14      591.31719     -37303029       1.7573947      1103581       -36199448       686.20889      686.20889      686.20889      1656.8956      2343.1044      1656.8956      2343.1044      1656.8956      2343.1044      3.2312386e+08  0.25           3065000        0              0              0              0
Averages over the last 11 of 21 rows, steps 12130000 to 12180000:
Temp Press PotEng Density KinEng TotEng Lx Ly Lz Xlo Xhi Ylo Yhi Zlo Zhi Volume Dt
372505 1446.69 -3.69863e+07 1.75739 1.10926e+06 -3.5877e+07 686.209 686.209 686.209 1656.9 2343.1 1656.9 2343.1 1656.9 2343.1 3.23124e+08 0.25
Loop time of 7.69004 on 4 procs for 100000 steps with 1000 atoms

unfix 3

fix 4 all nvt temp 370000 300 100.0

run 20000
Generated 0 of 1 mixed pair_coeff terms from geometric mixing rule
Step          Temp          Press          PotEng        Density         KinEng         TotEng           Lx             Ly             Lz            Xlo            Xhi            Ylo            Yhi            Zlo            Zhi           Volume           Dt            Time           CPU           T/CPU          S/CPU         CPULeft
12180000   375763.29      1406.5096     -37065226       1.7573947      1118958.9     -35946267       686.20889      686.20889      686.20889      1656.8956      2343.1044      1656.8956      2343.1044      1656.8956      2343.1044      3.2312386e+08  0.25           3090000        0              0              0              0
Loop time of 1.6642 on 4 procs for 20000 steps with 1000 atoms

unfix 4

fix 5 all npt temp 300 300 $(100.0*dt) iso 1.0 1.0 $(1000.0*dt)
fix 5 all npt temp 300 300 25 iso 1.0 1.0 $(1000.0*dt)
fix 5 all npt temp 300 300 25 iso 1.0 1.0 250

run 60000
Generated 0 of 1 mixed pair_coeff terms from geometric mixing rule
Step          Temp          Press          PotEng        Density         KinEng         TotEng           Lx             Ly             Lz            Xlo            Xhi            Ylo            Yhi            Zlo            Zhi           Volume           Dt            Time           CPU           T/CPU          S/CPU         CPULeft
12200000   9657.4997      179.42236     -37439621       1.7573947      28758.385     -37410862       686.20889      686.20889      686.20889      1656.8956      2343.1044      1656.8956      2343.1044      1656.8956      2343.1044      3.2312386e+08  0.25           3095000        0              0              0              0
Averages over the last 7 of 13 rows, steps 12230000 to 12260000:
Temp Press PotEng Density KinEng TotEng Lx Ly Lz Xlo Xhi Ylo Yhi Zlo Zhi Volume Dt
332.707 -0.635601 -3.76238e+07 1.76209 990.746 -3.76228e+07 685.599 685.599 685.599 1657.2 2342.8 1657.2 2342.8 1657.2 2342.8 3.22264e+08 0.25
Loop time of 5.35251 on 4 procs for 60000 steps with 1000 atoms

# run_style
run_style verlet

# write restart
write_restart ./pgnpmf/46/equpmf61.res
System init for write_restart ...
Generated 0 of 1 mixed pair_coeff terms from geometric mixing rule
