LAMMPS (23 Jun 2022 - Update 1)
# Read restart
read_restart ./pgnpmf/46/equpmf29.res
Reading restart file ...
  restart file = 23 Jun 2022, LAMMPS = 23 Jun 2022
  restoring atom style atomic from restart
  orthogonal box = (1508.2297 1508.2297 1508.2297) to (2491.7703 2491.7703 2491.7703)
  restoring pair style table from restart
  1000 atoms
  read_restart CPU = 0.007 seconds

# Settings

pair_style table spline 9941

pair_coeff 1 1 ./pgnpmf/N20.txt DE_GNP 75.6
pair_coeff 2 2 ./pgnpmf/N100.txt DE_GNP 115.92
pair_coeff 1 2 ./pgnpmf/mixed_potential.txt DE_GNP 95.66

#Neigh_list Calc Frequency

neigh_modify delay 0 every 1 check yes

# Saving Frequency (50 frames)

variable ts_save equal 5000

variable nts equal 5000/0.25
variable medium equal 20000*3
variable long equal 20000*5

# Dump
#dump_modify 1 first no sort id
dump 2 all cfg 50000 ./pgnpmf/46/equilibration/trajectory/dumpequ.tens_*.cfg mass type xs ys zs fx fy fz
dump_modify 2 element N20 N100

# thermo_style
thermo_style custom step temp press pe density ke etotal lx ly lz xlo xhi ylo yhi zlo zhi vol dt time cpu tpcpu spcpu cpuremain

# run info
timestep 0.25
thermo 5000

# fix

fix 1 all momentum 1000 linear 1 1 1 angular
variable T equal 300
fix 2 all nvt temp 300 370000 100.0

run 20000
Generated 0 of 1 mixed pair_coeff terms from geometric mixing rule
Unused restart file global fix info:
  fix style: npt, fix ID: 5
  update every 1 steps, delay 0 steps, check yes
Step          Temp          Press          PotEng        Density         KinEng         TotEng           Lx             Ly             Lz            Xlo            Xhi            Ylo            Yhi            Zlo            Zhi           Volume           Dt            Time           CPU           T/CPU          S/CPU         CPULeft
5860000   340.17873      2.3645558     -21442458       0.59684496     1012.9942     -21441445       983.54055      983.54055      983.54055      1508.2297      2491.7703      1508.2297      2491.7703      1508.2297      2491.7703      9.5142993e+08  0.25           1510000        0              0              0              0
Loop time of 1.32024 on 4 procs for 20000 steps with 1000 atoms

unfix 2

fix 3 all nvt temp 370000 370000 $(100.0*dt) #iso 1.0 1.0 $(1000.0*dt)
fix 3 all nvt temp 370000 370000 25

run 100000
Generated 0 of 1 mixed pair_coeff terms from geometric mixing rule
Step          Temp          Press          PotEng        Density         KinEng         TotEng           Lx             Ly             Lz            Xlo            Xhi            Ylo            Yhi            Zlo            Zhi           Volume           Dt            Time           CPU           T/CPU          S/CPU         CPULeft
5880000   365913.31     -31.162096     -21528082       0.59684496     1089627.4     -20438455       983.54055      983.54055      983.54055      1508.2297      2491.7703      1508.2297      2491.7703      1508.2297      2491.7703      9.5142993e+08  0.25           1515000        0              0              0              0
Averages over the last 11 of 21 rows, steps 5930000 to 5980000:
Temp Press PotEng Density KinEng TotEng Lx Ly Lz Xlo Xhi Ylo Yhi Zlo Zhi Volume Dt
371065 12.2147 -2.15534e+07 0.596845 1.10497e+06 -2.04484e+07 983.541 983.541 983.541 1508.23 2491.77 1508.23 2491.77 1508.23 2491.77 9.5143e+08 0.25
Loop time of 6.82603 on 4 procs for 100000 steps with 1000 atoms

unfix 3

fix 4 all nvt temp 370000 300 100.0

run 20000
Generated 0 of 1 mixed pair_coeff terms from geometric mixing rule
Step          Temp          Press          PotEng        Density         KinEng         TotEng           Lx             Ly             Lz            Xlo            Xhi            Ylo            Yhi            Zlo            Zhi           Volume           Dt            Time           CPU           T/CPU          S/CPU         CPULeft
5980000   372677.74      25.382139     -21434835       0.59684496     1109770.7     -20325064       983.54055      983.54055      983.54055      1508.2297      2491.7703      1508.2297      2491.7703      1508.2297      2491.7703      9.5142993e+08  0.25           1540000        0              0              0              0
Loop time of 1.32838 on 4 procs for 20000 steps with 1000 atoms

unfix 4

fix 5 all npt temp 300 300 $(100.0*dt) iso 1.0 1.0 $(1000.0*dt)
fix 5 all npt temp 300 300 25 iso 1.0 1.0 $(1000.0*dt)
fix 5 all npt temp 300 300 25 iso 1.0 1.0 250

run 60000
Generated 0 of 1 mixed pair_coeff terms from geometric mixing rule
Step          Temp          Press          PotEng        Density         KinEng         TotEng           Lx             Ly             Lz            Xlo            Xhi            Ylo            Yhi            Zlo            Zhi           Volume           Dt            Time           CPU           T/CPU          S/CPU         CPULeft
6000000   8839.9371     -251.87601     -21721928       0.59684496     26323.823     -21695604       983.54055      983.54055      983.54055      1508.2297      2491.7703      1508.2297      2491.7703      1508.2297      2491.7703      9.5142993e+08  0.25           1545000        0              0              0              0
Averages over the last 7 of 13 rows, steps 6030000 to 6060000:
Temp Press PotEng Density KinEng TotEng Lx Ly Lz Xlo Xhi Ylo Yhi Zlo Zhi Volume Dt
341.861 1.28628 -2.22715e+07 0.628703 1018 -2.22705e+07 966.641 966.641 966.641 1516.68 2483.32 1516.68 2483.32 1516.68 2483.32 9.03228e+08 0.25
Loop time of 4.95892 on 4 procs for 60000 steps with 1000 atoms

# run_style
run_style verlet

# write restart
write_restart ./pgnpmf/46/equpmf30.res
System init for write_restart ...
Generated 0 of 1 mixed pair_coeff terms from geometric mixing rule
