LAMMPS (23 Jun 2022 - Update 1)
# Read restart
read_restart ./pgnpmf/46/equpmf19.res
Reading restart file ...
  restart file = 23 Jun 2022, LAMMPS = 23 Jun 2022
  restoring atom style atomic from restart
  orthogonal box = (1373.5918 1373.5918 1373.5918) to (2626.4082 2626.4082 2626.4082)
  restoring pair style table from restart
  1000 atoms
  read_restart CPU = 0.004 seconds

# Settings

pair_style table spline 9941

pair_coeff 1 1 ./pgnpmf/N20.txt DE_GNP 75.6
pair_coeff 2 2 ./pgnpmf/N100.txt DE_GNP 115.92
pair_coeff 1 2 ./pgnpmf/mixed_potential.txt DE_GNP 95.66

#Neigh_list Calc Frequency

neigh_modify delay 0 every 1 check yes

# Saving Frequency (50 frames)

variable ts_save equal 5000

variable nts equal 5000/0.25
variable medium equal 20000*3
variable long equal 20000*5

# Dump
#dump_modify 1 first no sort id
dump 2 all cfg 50000 ./pgnpmf/46/equilibration/trajectory/dumpequ.tens_*.cfg mass type xs ys zs fx fy fz
dump_modify 2 element N20 N100

# thermo_style
thermo_style custom step temp press pe density ke etotal lx ly lz xlo xhi ylo yhi zlo zhi vol dt time cpu tpcpu spcpu cpuremain

# run info
timestep 0.25
thermo 5000

# fix

fix 1 all momentum 1000 linear 1 1 1 angular
variable T equal 300
fix 2 all nvt temp 300 370000 100.0

run 20000
Generated 0 of 1 mixed pair_coeff terms from geometric mixing rule
Unused restart file global fix info:
  fix style: npt, fix ID: 5
  update every 1 steps, delay 0 steps, check yes
Step          Temp          Press          PotEng        Density         KinEng         TotEng           Lx             Ly             Lz            Xlo            Xhi            Ylo            Yhi            Zlo            Zhi           Volume           Dt            Time           CPU           T/CPU          S/CPU         CPULeft
3860000   332.71796      0.96833402    -9127938.9      0.28878592     990.77727     -9126948.2      1252.8164      1252.8164      1252.8164      1373.5918      2626.4082      1373.5918      2626.4082      1373.5918      2626.4082      1.9663568e+09  0.25           1010000        0              0              0              0
Loop time of 0.884681 on 4 procs for 20000 steps with 1000 atoms

unfix 2

fix 3 all nvt temp 370000 370000 $(100.0*dt) #iso 1.0 1.0 $(1000.0*dt)
fix 3 all nvt temp 370000 370000 25

run 100000
Generated 0 of 1 mixed pair_coeff terms from geometric mixing rule
Step          Temp          Press          PotEng        Density         KinEng         TotEng           Lx             Ly             Lz            Xlo            Xhi            Ylo            Yhi            Zlo            Zhi           Volume           Dt            Time           CPU           T/CPU          S/CPU         CPULeft
3880000   369764.8       44.088751     -9120270.5      0.28878592     1101096.4     -8019174.1      1252.8164      1252.8164      1252.8164      1373.5918      2626.4082      1373.5918      2626.4082      1373.5918      2626.4082      1.9663568e+09  0.25           1015000        0              0              0              0
Averages over the last 11 of 21 rows, steps 3930000 to 3980000:
Temp Press PotEng Density KinEng TotEng Lx Ly Lz Xlo Xhi Ylo Yhi Zlo Zhi Volume Dt
366450 17.5286 -9.29181e+06 0.288786 1.09122e+06 -8.20058e+06 1252.82 1252.82 1252.82 1373.59 2626.41 1373.59 2626.41 1373.59 2626.41 1.96636e+09 0.25
Loop time of 4.49665 on 4 procs for 100000 steps with 1000 atoms

unfix 3

fix 4 all nvt temp 370000 300 100.0

run 20000
Generated 0 of 1 mixed pair_coeff terms from geometric mixing rule
Step          Temp          Press          PotEng        Density         KinEng         TotEng           Lx             Ly             Lz            Xlo            Xhi            Ylo            Yhi            Zlo            Zhi           Volume           Dt            Time           CPU           T/CPU          S/CPU         CPULeft
3980000   365438.39      7.9678656     -9275868.3      0.28878592     1088213.1     -8187655.2      1252.8164      1252.8164      1252.8164      1373.5918      2626.4082      1373.5918      2626.4082      1373.5918      2626.4082      1.9663568e+09  0.25           1040000        0              0              0              0
Loop time of 0.87646 on 4 procs for 20000 steps with 1000 atoms

unfix 4

fix 5 all npt temp 300 300 $(100.0*dt) iso 1.0 1.0 $(1000.0*dt)
fix 5 all npt temp 300 300 25 iso 1.0 1.0 $(1000.0*dt)
fix 5 all npt temp 300 300 25 iso 1.0 1.0 250

run 60000
Generated 0 of 1 mixed pair_coeff terms from geometric mixing rule
Step          Temp          Press          PotEng        Density         KinEng         TotEng           Lx             Ly             Lz            Xlo            Xhi            Ylo            Yhi            Zlo            Zhi           Volume           Dt            Time           CPU           T/CPU          S/CPU         CPULeft
4000000   8383.4311     -52.897559     -9302319.8      0.28878592     24964.426     -9277355.4      1252.8164      1252.8164      1252.8164      1373.5918      2626.4082      1373.5918      2626.4082      1373.5918      2626.4082      1.9663568e+09  0.25           1045000        0              0              0              0
Averages over the last 7 of 13 rows, steps 4030000 to 4060000:
Temp Press PotEng Density KinEng TotEng Lx Ly Lz Xlo Xhi Ylo Yhi Zlo Zhi Volume Dt
337.254 0.940886 -1.00149e+07 0.313068 1004.29 -1.00139e+07 1219.56 1219.56 1219.56 1390.22 2609.78 1390.22 2609.78 1390.22 2609.78 1.81394e+09 0.25
Loop time of 3.62097 on 4 procs for 60000 steps with 1000 atoms

# run_style
run_style verlet

# write restart
write_restart ./pgnpmf/46/equpmf20.res
System init for write_restart ...
Generated 0 of 1 mixed pair_coeff terms from geometric mixing rule
