LAMMPS (23 Jun 2022 - Update 1)
# Read restart
read_restart ./pgnpmf/46/equpmf67.res
Reading restart file ...
  restart file = 23 Jun 2022, LAMMPS = 23 Jun 2022
  restoring atom style atomic from restart
  orthogonal box = (1658.7365 1658.7365 1658.7365) to (2341.2635 2341.2635 2341.2635)
  restoring pair style table from restart
  1000 atoms
  read_restart CPU = 0.005 seconds

# Settings

pair_style table spline 9941

pair_coeff 1 1 ./pgnpmf/N20.txt DE_GNP 75.6
pair_coeff 2 2 ./pgnpmf/N100.txt DE_GNP 115.92
pair_coeff 1 2 ./pgnpmf/mixed_potential.txt DE_GNP 95.66

#Neigh_list Calc Frequency

neigh_modify delay 0 every 1 check yes

# Saving Frequency (50 frames)

variable ts_save equal 5000

variable nts equal 5000/0.25
variable medium equal 20000*3
variable long equal 20000*5

# Dump
#dump_modify 1 first no sort id
dump 2 all cfg 50000 ./pgnpmf/46/equilibration/trajectory/dumpequ.tens_*.cfg mass type xs ys zs fx fy fz
dump_modify 2 element N20 N100

# thermo_style
thermo_style custom step temp press pe density ke etotal lx ly lz xlo xhi ylo yhi zlo zhi vol dt time cpu tpcpu spcpu cpuremain

# run info
timestep 0.25
thermo 5000

# fix

fix 1 all momentum 1000 linear 1 1 1 angular
variable T equal 300
fix 2 all nvt temp 300 370000 100.0

run 20000
Generated 0 of 1 mixed pair_coeff terms from geometric mixing rule
Unused restart file global fix info:
  fix style: npt, fix ID: 5
  update every 1 steps, delay 0 steps, check yes
Step          Temp          Press          PotEng        Density         KinEng         TotEng           Lx             Ly             Lz            Xlo            Xhi            Ylo            Yhi            Zlo            Zhi           Volume           Dt            Time           CPU           T/CPU          S/CPU         CPULeft
13460000   330.76026     -1.3887928     -38024425       1.7859887      984.94758     -38023440       682.52706      682.52706      682.52706      1658.7365      2341.2635      1658.7365      2341.2635      1658.7365      2341.2635      3.1795058e+08  0.25           3410000        0              0              0              0
Loop time of 1.55676 on 4 procs for 20000 steps with 1000 atoms

unfix 2

fix 3 all nvt temp 370000 370000 $(100.0*dt) #iso 1.0 1.0 $(1000.0*dt)
fix 3 all nvt temp 370000 370000 25

run 100000
Generated 0 of 1 mixed pair_coeff terms from geometric mixing rule
Step          Temp          Press          PotEng        Density         KinEng         TotEng           Lx             Ly             Lz            Xlo            Xhi            Ylo            Yhi            Zlo            Zhi           Volume           Dt            Time           CPU           T/CPU          S/CPU         CPULeft
13480000   370450.2       771.44122     -37743987       1.7859887      1103137.4     -36640849       682.52706      682.52706      682.52706      1658.7365      2341.2635      1658.7365      2341.2635      1658.7365      2341.2635      3.1795058e+08  0.25           3415000        0              0              0              0
Averages over the last 11 of 21 rows, steps 13530000 to 13580000:
Temp Press PotEng Density KinEng TotEng Lx Ly Lz Xlo Xhi Ylo Yhi Zlo Zhi Volume Dt
370614 1606.68 -3.73747e+07 1.78599 1.10362e+06 -3.62711e+07 682.527 682.527 682.527 1658.74 2341.26 1658.74 2341.26 1658.74 2341.26 3.17951e+08 0.25
Loop time of 7.9016 on 4 procs for 100000 steps with 1000 atoms

unfix 3

fix 4 all nvt temp 370000 300 100.0

run 20000
Generated 0 of 1 mixed pair_coeff terms from geometric mixing rule
Step          Temp          Press          PotEng        Density         KinEng         TotEng           Lx             Ly             Lz            Xlo            Xhi            Ylo            Yhi            Zlo            Zhi           Volume           Dt            Time           CPU           T/CPU          S/CPU         CPULeft
13580000   368538.25      1657.5721     -37369509       1.7859887      1097444       -36272065       682.52706      682.52706      682.52706      1658.7365      2341.2635      1658.7365      2341.2635      1658.7365      2341.2635      3.1795058e+08  0.25           3440000        0              0              0              0
Loop time of 1.56602 on 4 procs for 20000 steps with 1000 atoms

unfix 4

fix 5 all npt temp 300 300 $(100.0*dt) iso 1.0 1.0 $(1000.0*dt)
fix 5 all npt temp 300 300 25 iso 1.0 1.0 $(1000.0*dt)
fix 5 all npt temp 300 300 25 iso 1.0 1.0 250

run 60000
Generated 0 of 1 mixed pair_coeff terms from geometric mixing rule
Step          Temp          Press          PotEng        Density         KinEng         TotEng           Lx             Ly             Lz            Xlo            Xhi            Ylo            Yhi            Zlo            Zhi           Volume           Dt            Time           CPU           T/CPU          S/CPU         CPULeft
13600000   9755.6297      298.85181     -37887492       1.7859887      29050.599     -37858442       682.52706      682.52706      682.52706      1658.7365      2341.2635      1658.7365      2341.2635      1658.7365      2341.2635      3.1795058e+08  0.25           3445000        0              0              0              0
Averages over the last 7 of 13 rows, steps 13630000 to 13660000:
Temp Press PotEng Density KinEng TotEng Lx Ly Lz Xlo Xhi Ylo Yhi Zlo Zhi Volume Dt
333.295 3.55535 -3.80422e+07 1.78727 992.495 -3.80413e+07 682.365 682.365 682.365 1658.82 2341.18 1658.82 2341.18 1658.82 2341.18 3.17724e+08 0.25
Loop time of 5.59 on 4 procs for 60000 steps with 1000 atoms

# run_style
run_style verlet

# write restart
write_restart ./pgnpmf/46/equpmf68.res
System init for write_restart ...
Generated 0 of 1 mixed pair_coeff terms from geometric mixing rule
