LAMMPS (23 Jun 2022 - Update 1)
# Read restart
read_restart ./pgnpmf/46/equpmf4.res
Reading restart file ...
  restart file = 23 Jun 2022, LAMMPS = 23 Jun 2022
  restoring atom style atomic from restart
  orthogonal box = (690.70113 690.70113 690.70113) to (3309.2989 3309.2989 3309.2989)
  restoring pair style table from restart
  1000 atoms
  read_restart CPU = 0.005 seconds

# Settings

pair_style table spline 9941

pair_coeff 1 1 ./pgnpmf/N20.txt DE_GNP 75.6
pair_coeff 2 2 ./pgnpmf/N100.txt DE_GNP 115.92
pair_coeff 1 2 ./pgnpmf/mixed_potential.txt DE_GNP 95.66

#Neigh_list Calc Frequency

neigh_modify delay 0 every 1 check yes

# Saving Frequency (50 frames)

variable ts_save equal 5000

variable nts equal 5000/0.25
variable medium equal 20000*3
variable long equal 20000*5

# Dump
#dump_modify 1 first no sort id
dump 2 all cfg 50000 ./pgnpmf/46/equilibration/trajectory/dumpequ.tens_*.cfg mass type xs ys zs fx fy fz
dump_modify 2 element N20 N100

# thermo_style
thermo_style custom step temp press pe density ke etotal lx ly lz xlo xhi ylo yhi zlo zhi vol dt time cpu tpcpu spcpu cpuremain

# run info
timestep 0.25
thermo 5000

# fix

fix 1 all momentum 1000 linear 1 1 1 angular
variable T equal 300
fix 2 all nvt temp 300 370000 100.0

run 20000
Generated 0 of 1 mixed pair_coeff terms from geometric mixing rule
Unused restart file global fix info:
  fix style: npt, fix ID: 5
  update every 1 steps, delay 0 steps, check yes
Step          Temp          Press          PotEng        Density         KinEng         TotEng           Lx             Ly             Lz            Xlo            Xhi            Ylo            Yhi            Zlo            Zhi           Volume           Dt            Time           CPU           T/CPU          S/CPU         CPULeft
860000   334.75892      0.984686      -2187689.4      0.031625104    996.85489     -2186692.5      2618.5977      2618.5977      2618.5977      690.70113      3309.2989      690.70113      3309.2989      690.70113      3309.2989      1.7955867e+10  0.25           260000         0              0              0              0
Loop time of 0.551528 on 4 procs for 20000 steps with 1000 atoms

unfix 2

fix 3 all nvt temp 370000 370000 $(100.0*dt) #iso 1.0 1.0 $(1000.0*dt)
fix 3 all nvt temp 370000 370000 25

run 100000
Generated 0 of 1 mixed pair_coeff terms from geometric mixing rule
Step          Temp          Press          PotEng        Density         KinEng         TotEng           Lx             Ly             Lz            Xlo            Xhi            Ylo            Yhi            Zlo            Zhi           Volume           Dt            Time           CPU           T/CPU          S/CPU         CPULeft
880000   370488.44      3.0113804     -2257407.8      0.031625104    1103251.3     -1154156.5      2618.5977      2618.5977      2618.5977      690.70113      3309.2989      690.70113      3309.2989      690.70113      3309.2989      1.7955867e+10  0.25           265000         0              0              0              0
Averages over the last 11 of 21 rows, steps 930000 to 980000:
Temp Press PotEng Density KinEng TotEng Lx Ly Lz Xlo Xhi Ylo Yhi Zlo Zhi Volume Dt
372395 3.43273 -2.25149e+06 0.0316251 1.10893e+06 -1.14256e+06 2618.6 2618.6 2618.6 690.701 3309.3 690.701 3309.3 690.701 3309.3 1.79559e+10 0.25
Loop time of 2.76194 on 4 procs for 100000 steps with 1000 atoms

unfix 3

fix 4 all nvt temp 370000 300 100.0

run 20000
Generated 0 of 1 mixed pair_coeff terms from geometric mixing rule
Step          Temp          Press          PotEng        Density         KinEng         TotEng           Lx             Ly             Lz            Xlo            Xhi            Ylo            Yhi            Zlo            Zhi           Volume           Dt            Time           CPU           T/CPU          S/CPU         CPULeft
980000   392438.95      2.4730808     -2228055.6      0.031625104    1168616.2     -1059439.4      2618.5977      2618.5977      2618.5977      690.70113      3309.2989      690.70113      3309.2989      690.70113      3309.2989      1.7955867e+10  0.25           290000         0              0              0              0
Loop time of 0.557759 on 4 procs for 20000 steps with 1000 atoms

unfix 4

fix 5 all npt temp 300 300 $(100.0*dt) iso 1.0 1.0 $(1000.0*dt)
fix 5 all npt temp 300 300 25 iso 1.0 1.0 $(1000.0*dt)
fix 5 all npt temp 300 300 25 iso 1.0 1.0 250

run 60000
Generated 0 of 1 mixed pair_coeff terms from geometric mixing rule
Step          Temp          Press          PotEng        Density         KinEng         TotEng           Lx             Ly             Lz            Xlo            Xhi            Ylo            Yhi            Zlo            Zhi           Volume           Dt            Time           CPU           T/CPU          S/CPU         CPULeft
1000000   7857.2923     -1.7120905     -2147887.3      0.031625104    23397.675     -2124489.6      2618.5977      2618.5977      2618.5977      690.70113      3309.2989      690.70113      3309.2989      690.70113      3309.2989      1.7955867e+10  0.25           295000         0              0              0              0
Averages over the last 7 of 13 rows, steps 1030000 to 1060000:
Temp Press PotEng Density KinEng TotEng Lx Ly Lz Xlo Xhi Ylo Yhi Zlo Zhi Volume Dt
330.071 1.00776 -2.82326e+06 0.0390809 982.894 -2.82227e+06 2440.44 2440.44 2440.44 779.778 3220.22 779.778 3220.22 779.778 3220.22 1.45369e+10 0.25
Loop time of 2.60461 on 4 procs for 60000 steps with 1000 atoms

# run_style
run_style verlet

# write restart
write_restart ./pgnpmf/46/equpmf5.res
System init for write_restart ...
Generated 0 of 1 mixed pair_coeff terms from geometric mixing rule
