LAMMPS (23 Jun 2022 - Update 1)
# Read restart
read_restart ./pgnpmf/46/equpmf52.res
Reading restart file ...
  restart file = 23 Jun 2022, LAMMPS = 23 Jun 2022
  restoring atom style atomic from restart
  orthogonal box = (1644.734 1644.734 1644.734) to (2355.266 2355.266 2355.266)
  restoring pair style table from restart
  1000 atoms
  read_restart CPU = 0.003 seconds

# Settings

pair_style table spline 9941

pair_coeff 1 1 ./pgnpmf/N20.txt DE_GNP 75.6
pair_coeff 2 2 ./pgnpmf/N100.txt DE_GNP 115.92
pair_coeff 1 2 ./pgnpmf/mixed_potential.txt DE_GNP 95.66

#Neigh_list Calc Frequency

neigh_modify delay 0 every 1 check yes

# Saving Frequency (50 frames)

variable ts_save equal 5000

variable nts equal 5000/0.25
variable medium equal 20000*3
variable long equal 20000*5

# Dump
#dump_modify 1 first no sort id
dump 2 all cfg 50000 ./pgnpmf/46/equilibration/trajectory/dumpequ.tens_*.cfg mass type xs ys zs fx fy fz
dump_modify 2 element N20 N100

# thermo_style
thermo_style custom step temp press pe density ke etotal lx ly lz xlo xhi ylo yhi zlo zhi vol dt time cpu tpcpu spcpu cpuremain

# run info
timestep 0.25
thermo 5000

# fix

fix 1 all momentum 1000 linear 1 1 1 angular
variable T equal 300
fix 2 all nvt temp 300 370000 100.0

run 20000
Generated 0 of 1 mixed pair_coeff terms from geometric mixing rule
Unused restart file global fix info:
  fix style: npt, fix ID: 5
  update every 1 steps, delay 0 steps, check yes
Step          Temp          Press          PotEng        Density         KinEng         TotEng           Lx             Ly             Lz            Xlo            Xhi            Ylo            Yhi            Zlo            Zhi           Volume           Dt            Time           CPU           T/CPU          S/CPU         CPULeft
10460000   335.52715      1.782993      -35101845       1.5830242      999.14255     -35100846       710.53193      710.53193      710.53193      1644.734       2355.266       1644.734       2355.266       1644.734       2355.266       3.5871603e+08  0.25           2660000        0              0              0              0
Loop time of 1.50396 on 4 procs for 20000 steps with 1000 atoms

unfix 2

fix 3 all nvt temp 370000 370000 $(100.0*dt) #iso 1.0 1.0 $(1000.0*dt)
fix 3 all nvt temp 370000 370000 25

run 100000
Generated 0 of 1 mixed pair_coeff terms from geometric mixing rule
Step          Temp          Press          PotEng        Density         KinEng         TotEng           Lx             Ly             Lz            Xlo            Xhi            Ylo            Yhi            Zlo            Zhi           Volume           Dt            Time           CPU           T/CPU          S/CPU         CPULeft
10480000   367801.75      237.22481     -34965531       1.5830242      1095250.8     -33870280       710.53193      710.53193      710.53193      1644.734       2355.266       1644.734       2355.266       1644.734       2355.266       3.5871603e+08  0.25           2665000        0              0              0              0
Averages over the last 11 of 21 rows, steps 10530000 to 10580000:
Temp Press PotEng Density KinEng TotEng Lx Ly Lz Xlo Xhi Ylo Yhi Zlo Zhi Volume Dt
367921 674.11 -3.47392e+07 1.58302 1.0956e+06 -3.36436e+07 710.532 710.532 710.532 1644.73 2355.27 1644.73 2355.27 1644.73 2355.27 3.58716e+08 0.25
Loop time of 7.49891 on 4 procs for 100000 steps with 1000 atoms

unfix 3

fix 4 all nvt temp 370000 300 100.0

run 20000
Generated 0 of 1 mixed pair_coeff terms from geometric mixing rule
Step          Temp          Press          PotEng        Density         KinEng         TotEng           Lx             Ly             Lz            Xlo            Xhi            Ylo            Yhi            Zlo            Zhi           Volume           Dt            Time           CPU           T/CPU          S/CPU         CPULeft
10580000   351035.53      543.95556     -34796447       1.5830242      1045323.9     -33751123       710.53193      710.53193      710.53193      1644.734       2355.266       1644.734       2355.266       1644.734       2355.266       3.5871603e+08  0.25           2690000        0              0              0              0
Loop time of 1.48513 on 4 procs for 20000 steps with 1000 atoms

unfix 4

fix 5 all npt temp 300 300 $(100.0*dt) iso 1.0 1.0 $(1000.0*dt)
fix 5 all npt temp 300 300 25 iso 1.0 1.0 $(1000.0*dt)
fix 5 all npt temp 300 300 25 iso 1.0 1.0 250

run 60000
Generated 0 of 1 mixed pair_coeff terms from geometric mixing rule
Step          Temp          Press          PotEng        Density         KinEng         TotEng           Lx             Ly             Lz            Xlo            Xhi            Ylo            Yhi            Zlo            Zhi           Volume           Dt            Time           CPU           T/CPU          S/CPU         CPULeft
10600000   9463.0015     -501.94024     -35148571       1.5830242      28179.203     -35120392       710.53193      710.53193      710.53193      1644.734       2355.266       1644.734       2355.266       1644.734       2355.266       3.5871603e+08  0.25           2695000        0              0              0              0
Averages over the last 7 of 13 rows, steps 10630000 to 10660000:
Temp Press PotEng Density KinEng TotEng Lx Ly Lz Xlo Xhi Ylo Yhi Zlo Zhi Volume Dt
338.308 -1.09175 -3.5617e+07 1.61795 1007.42 -3.56159e+07 705.383 705.383 705.383 1647.31 2352.69 1647.31 2352.69 1647.31 2352.69 3.50974e+08 0.25
Loop time of 5.28153 on 4 procs for 60000 steps with 1000 atoms

# run_style
run_style verlet

# write restart
write_restart ./pgnpmf/46/equpmf53.res
System init for write_restart ...
Generated 0 of 1 mixed pair_coeff terms from geometric mixing rule
