LAMMPS (23 Jun 2022 - Update 1)
# Read restart
read_restart ./pgnpmf/46/equpmf53.res
Reading restart file ...
  restart file = 23 Jun 2022, LAMMPS = 23 Jun 2022
  restoring atom style atomic from restart
  orthogonal box = (1647.5636 1647.5636 1647.5636) to (2352.4364 2352.4364 2352.4364)
  restoring pair style table from restart
  1000 atoms
  read_restart CPU = 0.005 seconds

# Settings

pair_style table spline 9941

pair_coeff 1 1 ./pgnpmf/N20.txt DE_GNP 75.6
pair_coeff 2 2 ./pgnpmf/N100.txt DE_GNP 115.92
pair_coeff 1 2 ./pgnpmf/mixed_potential.txt DE_GNP 95.66

#Neigh_list Calc Frequency

neigh_modify delay 0 every 1 check yes

# Saving Frequency (50 frames)

variable ts_save equal 5000

variable nts equal 5000/0.25
variable medium equal 20000*3
variable long equal 20000*5

# Dump
#dump_modify 1 first no sort id
dump 2 all cfg 50000 ./pgnpmf/46/equilibration/trajectory/dumpequ.tens_*.cfg mass type xs ys zs fx fy fz
dump_modify 2 element N20 N100

# thermo_style
thermo_style custom step temp press pe density ke etotal lx ly lz xlo xhi ylo yhi zlo zhi vol dt time cpu tpcpu spcpu cpuremain

# run info
timestep 0.25
thermo 5000

# fix

fix 1 all momentum 1000 linear 1 1 1 angular
variable T equal 300
fix 2 all nvt temp 300 370000 100.0

run 20000
Generated 0 of 1 mixed pair_coeff terms from geometric mixing rule
Unused restart file global fix info:
  fix style: npt, fix ID: 5
  update every 1 steps, delay 0 steps, check yes
Step          Temp          Press          PotEng        Density         KinEng         TotEng           Lx             Ly             Lz            Xlo            Xhi            Ylo            Yhi            Zlo            Zhi           Volume           Dt            Time           CPU           T/CPU          S/CPU         CPULeft
10660000   336.23333     -7.3031904     -35677011       1.6214591      1001.2454     -35676009       704.87284      704.87284      704.87284      1647.5636      2352.4364      1647.5636      2352.4364      1647.5636      2352.4364      3.5021306e+08  0.25           2710000        0              0              0              0
Loop time of 1.58198 on 4 procs for 20000 steps with 1000 atoms

unfix 2

fix 3 all nvt temp 370000 370000 $(100.0*dt) #iso 1.0 1.0 $(1000.0*dt)
fix 3 all nvt temp 370000 370000 25

run 100000
Generated 0 of 1 mixed pair_coeff terms from geometric mixing rule
Step          Temp          Press          PotEng        Density         KinEng         TotEng           Lx             Ly             Lz            Xlo            Xhi            Ylo            Yhi            Zlo            Zhi           Volume           Dt            Time           CPU           T/CPU          S/CPU         CPULeft
10680000   367817.97      340.30073     -35456536       1.6214591      1095299.1     -34361237       704.87284      704.87284      704.87284      1647.5636      2352.4364      1647.5636      2352.4364      1647.5636      2352.4364      3.5021306e+08  0.25           2715000        0              0              0              0
Averages over the last 11 of 21 rows, steps 10730000 to 10780000:
Temp Press PotEng Density KinEng TotEng Lx Ly Lz Xlo Xhi Ylo Yhi Zlo Zhi Volume Dt
372291 830.237 -3.52181e+07 1.62146 1.10862e+06 -3.41095e+07 704.873 704.873 704.873 1647.56 2352.44 1647.56 2352.44 1647.56 2352.44 3.50213e+08 0.25
Loop time of 8.02071 on 4 procs for 100000 steps with 1000 atoms

unfix 3

fix 4 all nvt temp 370000 300 100.0

run 20000
Generated 0 of 1 mixed pair_coeff terms from geometric mixing rule
Step          Temp          Press          PotEng        Density         KinEng         TotEng           Lx             Ly             Lz            Xlo            Xhi            Ylo            Yhi            Zlo            Zhi           Volume           Dt            Time           CPU           T/CPU          S/CPU         CPULeft
10780000   369474.39      619.76804     -35168601       1.6214591      1100231.6     -34068369       704.87284      704.87284      704.87284      1647.5636      2352.4364      1647.5636      2352.4364      1647.5636      2352.4364      3.5021306e+08  0.25           2740000        0              0              0              0
Loop time of 1.57895 on 4 procs for 20000 steps with 1000 atoms

unfix 4

fix 5 all npt temp 300 300 $(100.0*dt) iso 1.0 1.0 $(1000.0*dt)
fix 5 all npt temp 300 300 25 iso 1.0 1.0 $(1000.0*dt)
fix 5 all npt temp 300 300 25 iso 1.0 1.0 250

run 60000
Generated 0 of 1 mixed pair_coeff terms from geometric mixing rule
Step          Temp          Press          PotEng        Density         KinEng         TotEng           Lx             Ly             Lz            Xlo            Xhi            Ylo            Yhi            Zlo            Zhi           Volume           Dt            Time           CPU           T/CPU          S/CPU         CPULeft
10800000   9489.0055     -362.26027     -35659896       1.6214591      28256.638     -35631639       704.87284      704.87284      704.87284      1647.5636      2352.4364      1647.5636      2352.4364      1647.5636      2352.4364      3.5021306e+08  0.25           2745000        0              0              0              0
Averages over the last 7 of 13 rows, steps 10830000 to 10860000:
Temp Press PotEng Density KinEng TotEng Lx Ly Lz Xlo Xhi Ylo Yhi Zlo Zhi Volume Dt
337.303 1.31706 -3.59827e+07 1.64944 1004.43 -3.59817e+07 700.865 700.865 700.865 1649.57 2350.43 1649.57 2350.43 1649.57 2350.43 3.44274e+08 0.25
Loop time of 5.57404 on 4 procs for 60000 steps with 1000 atoms

# run_style
run_style verlet

# write restart
write_restart ./pgnpmf/46/equpmf54.res
System init for write_restart ...
Generated 0 of 1 mixed pair_coeff terms from geometric mixing rule
