LAMMPS (23 Jun 2022 - Update 1)
# Read restart
read_restart ./pgnpmf/46/equpmf48.res
Reading restart file ...
  restart file = 23 Jun 2022, LAMMPS = 23 Jun 2022
  restoring atom style atomic from restart
  orthogonal box = (1630.6391 1630.6391 1630.6391) to (2369.3609 2369.3609 2369.3609)
  restoring pair style table from restart
  1000 atoms
  read_restart CPU = 0.006 seconds

# Settings

pair_style table spline 9941

pair_coeff 1 1 ./pgnpmf/N20.txt DE_GNP 75.6
pair_coeff 2 2 ./pgnpmf/N100.txt DE_GNP 115.92
pair_coeff 1 2 ./pgnpmf/mixed_potential.txt DE_GNP 95.66

#Neigh_list Calc Frequency

neigh_modify delay 0 every 1 check yes

# Saving Frequency (50 frames)

variable ts_save equal 5000

variable nts equal 5000/0.25
variable medium equal 20000*3
variable long equal 20000*5

# Dump
#dump_modify 1 first no sort id
dump 2 all cfg 50000 ./pgnpmf/46/equilibration/trajectory/dumpequ.tens_*.cfg mass type xs ys zs fx fy fz
dump_modify 2 element N20 N100

# thermo_style
thermo_style custom step temp press pe density ke etotal lx ly lz xlo xhi ylo yhi zlo zhi vol dt time cpu tpcpu spcpu cpuremain

# run info
timestep 0.25
thermo 5000

# fix

fix 1 all momentum 1000 linear 1 1 1 angular
variable T equal 300
fix 2 all nvt temp 300 370000 100.0

run 20000
Generated 0 of 1 mixed pair_coeff terms from geometric mixing rule
Unused restart file global fix info:
  fix style: npt, fix ID: 5
  update every 1 steps, delay 0 steps, check yes
Step          Temp          Press          PotEng        Density         KinEng         TotEng           Lx             Ly             Lz            Xlo            Xhi            Ylo            Yhi            Zlo            Zhi           Volume           Dt            Time           CPU           T/CPU          S/CPU         CPULeft
9660000   338.78384      4.1913638     -33121848       1.4086251      1008.8404     -33120839       738.72189      738.72189      738.72189      1630.6391      2369.3609      1630.6391      2369.3609      1630.6391      2369.3609      4.0312795e+08  0.25           2460000        0              0              0              0
Loop time of 1.63231 on 4 procs for 20000 steps with 1000 atoms

unfix 2

fix 3 all nvt temp 370000 370000 $(100.0*dt) #iso 1.0 1.0 $(1000.0*dt)
fix 3 all nvt temp 370000 370000 25

run 100000
Generated 0 of 1 mixed pair_coeff terms from geometric mixing rule
Step          Temp          Press          PotEng        Density         KinEng         TotEng           Lx             Ly             Lz            Xlo            Xhi            Ylo            Yhi            Zlo            Zhi           Volume           Dt            Time           CPU           T/CPU          S/CPU         CPULeft
9680000   366439.86      31.684214     -33170619       1.4086251      1091195.3     -32079423       738.72189      738.72189      738.72189      1630.6391      2369.3609      1630.6391      2369.3609      1630.6391      2369.3609      4.0312795e+08  0.25           2465000        0              0              0              0
Averages over the last 11 of 21 rows, steps 9730000 to 9780000:
Temp Press PotEng Density KinEng TotEng Lx Ly Lz Xlo Xhi Ylo Yhi Zlo Zhi Volume Dt
367669 377.761 -3.29411e+07 1.40863 1.09485e+06 -3.18463e+07 738.722 738.722 738.722 1630.64 2369.36 1630.64 2369.36 1630.64 2369.36 4.03128e+08 0.25
Loop time of 8.23516 on 4 procs for 100000 steps with 1000 atoms

unfix 3

fix 4 all nvt temp 370000 300 100.0

run 20000
Generated 0 of 1 mixed pair_coeff terms from geometric mixing rule
Step          Temp          Press          PotEng        Density         KinEng         TotEng           Lx             Ly             Lz            Xlo            Xhi            Ylo            Yhi            Zlo            Zhi           Volume           Dt            Time           CPU           T/CPU          S/CPU         CPULeft
9780000   372559.25      141.52352     -32940174       1.4086251      1109417.8     -31830756       738.72189      738.72189      738.72189      1630.6391      2369.3609      1630.6391      2369.3609      1630.6391      2369.3609      4.0312795e+08  0.25           2490000        0              0              0              0
Loop time of 1.61312 on 4 procs for 20000 steps with 1000 atoms

unfix 4

fix 5 all npt temp 300 300 $(100.0*dt) iso 1.0 1.0 $(1000.0*dt)
fix 5 all npt temp 300 300 25 iso 1.0 1.0 $(1000.0*dt)
fix 5 all npt temp 300 300 25 iso 1.0 1.0 250

run 60000
Generated 0 of 1 mixed pair_coeff terms from geometric mixing rule
Step          Temp          Press          PotEng        Density         KinEng         TotEng           Lx             Ly             Lz            Xlo            Xhi            Ylo            Yhi            Zlo            Zhi           Volume           Dt            Time           CPU           T/CPU          S/CPU         CPULeft
9800000   9240.7436     -588.59856     -33167693       1.4086251      27517.357     -33140175       738.72189      738.72189      738.72189      1630.6391      2369.3609      1630.6391      2369.3609      1630.6391      2369.3609      4.0312795e+08  0.25           2495000        0              0              0              0
Averages over the last 7 of 13 rows, steps 9830000 to 9860000:
Temp Press PotEng Density KinEng TotEng Lx Ly Lz Xlo Xhi Ylo Yhi Zlo Zhi Volume Dt
339.553 2.27974 -3.36697e+07 1.451 1011.13 -3.36687e+07 731.461 731.461 731.461 1634.27 2365.73 1634.27 2365.73 1634.27 2365.73 3.91358e+08 0.25
Loop time of 5.7434 on 4 procs for 60000 steps with 1000 atoms

# run_style
run_style verlet

# write restart
write_restart ./pgnpmf/46/equpmf49.res
System init for write_restart ...
Generated 0 of 1 mixed pair_coeff terms from geometric mixing rule
