LAMMPS (23 Jun 2022 - Update 1)
# Read restart
read_restart ./pgnpmf/46/equpmf68.res
Reading restart file ...
  restart file = 23 Jun 2022, LAMMPS = 23 Jun 2022
  restoring atom style atomic from restart
  orthogonal box = (1659.0061 1659.0061 1659.0061) to (2340.9939 2340.9939 2340.9939)
  restoring pair style table from restart
  1000 atoms
  read_restart CPU = 0.005 seconds

# Settings

pair_style table spline 9941

pair_coeff 1 1 ./pgnpmf/N20.txt DE_GNP 75.6
pair_coeff 2 2 ./pgnpmf/N100.txt DE_GNP 115.92
pair_coeff 1 2 ./pgnpmf/mixed_potential.txt DE_GNP 95.66

#Neigh_list Calc Frequency

neigh_modify delay 0 every 1 check yes

# Saving Frequency (50 frames)

variable ts_save equal 5000

variable nts equal 5000/0.25
variable medium equal 20000*3
variable long equal 20000*5

# Dump
#dump_modify 1 first no sort id
dump 2 all cfg 50000 ./pgnpmf/46/equilibration/trajectory/dumpequ.tens_*.cfg mass type xs ys zs fx fy fz
dump_modify 2 element N20 N100

# thermo_style
thermo_style custom step temp press pe density ke etotal lx ly lz xlo xhi ylo yhi zlo zhi vol dt time cpu tpcpu spcpu cpuremain

# run info
timestep 0.25
thermo 5000

# fix

fix 1 all momentum 1000 linear 1 1 1 angular
variable T equal 300
fix 2 all nvt temp 300 370000 100.0

run 20000
Generated 0 of 1 mixed pair_coeff terms from geometric mixing rule
Unused restart file global fix info:
  fix style: npt, fix ID: 5
  update every 1 steps, delay 0 steps, check yes
Step          Temp          Press          PotEng        Density         KinEng         TotEng           Lx             Ly             Lz            Xlo            Xhi            Ylo            Yhi            Zlo            Zhi           Volume           Dt            Time           CPU           T/CPU          S/CPU         CPULeft
13660000   331.18154      5.3038309     -38078860       1.7902295      986.20208     -38077874       681.98771      681.98771      681.98771      1659.0061      2340.9939      1659.0061      2340.9939      1659.0061      2340.9939      3.1719741e+08  0.25           3460000        0              0              0              0
Loop time of 1.55576 on 4 procs for 20000 steps with 1000 atoms

unfix 2

fix 3 all nvt temp 370000 370000 $(100.0*dt) #iso 1.0 1.0 $(1000.0*dt)
fix 3 all nvt temp 370000 370000 25

run 100000
Generated 0 of 1 mixed pair_coeff terms from geometric mixing rule
Step          Temp          Press          PotEng        Density         KinEng         TotEng           Lx             Ly             Lz            Xlo            Xhi            Ylo            Yhi            Zlo            Zhi           Volume           Dt            Time           CPU           T/CPU          S/CPU         CPULeft
13680000   370265.11      676.57894     -37835241       1.7902295      1102586.3     -36732655       681.98771      681.98771      681.98771      1659.0061      2340.9939      1659.0061      2340.9939      1659.0061      2340.9939      3.1719741e+08  0.25           3465000        0              0              0              0
Averages over the last 11 of 21 rows, steps 13730000 to 13780000:
Temp Press PotEng Density KinEng TotEng Lx Ly Lz Xlo Xhi Ylo Yhi Zlo Zhi Volume Dt
367483 1756.94 -3.74127e+07 1.79023 1.0943e+06 -3.63184e+07 681.988 681.988 681.988 1659.01 2340.99 1659.01 2340.99 1659.01 2340.99 3.17197e+08 0.25
Loop time of 7.91778 on 4 procs for 100000 steps with 1000 atoms

unfix 3

fix 4 all nvt temp 370000 300 100.0

run 20000
Generated 0 of 1 mixed pair_coeff terms from geometric mixing rule
Step          Temp          Press          PotEng        Density         KinEng         TotEng           Lx             Ly             Lz            Xlo            Xhi            Ylo            Yhi            Zlo            Zhi           Volume           Dt            Time           CPU           T/CPU          S/CPU         CPULeft
13780000   364403.46      1615.3751     -37475887       1.7902295      1085131.3     -36390756       681.98771      681.98771      681.98771      1659.0061      2340.9939      1659.0061      2340.9939      1659.0061      2340.9939      3.1719741e+08  0.25           3490000        0              0              0              0
Loop time of 1.58779 on 4 procs for 20000 steps with 1000 atoms

unfix 4

fix 5 all npt temp 300 300 $(100.0*dt) iso 1.0 1.0 $(1000.0*dt)
fix 5 all npt temp 300 300 25 iso 1.0 1.0 $(1000.0*dt)
fix 5 all npt temp 300 300 25 iso 1.0 1.0 250

run 60000
Generated 0 of 1 mixed pair_coeff terms from geometric mixing rule
Step          Temp          Press          PotEng        Density         KinEng         TotEng           Lx             Ly             Lz            Xlo            Xhi            Ylo            Yhi            Zlo            Zhi           Volume           Dt            Time           CPU           T/CPU          S/CPU         CPULeft
13800000   9763.1049      349.45409     -38050173       1.7902295      29072.859     -38021100       681.98771      681.98771      681.98771      1659.0061      2340.9939      1659.0061      2340.9939      1659.0061      2340.9939      3.1719741e+08  0.25           3495000        0              0              0              0
Averages over the last 7 of 13 rows, steps 13830000 to 13860000:
Temp Press PotEng Density KinEng TotEng Lx Ly Lz Xlo Xhi Ylo Yhi Zlo Zhi Volume Dt
332.083 -1.70637 -3.82218e+07 1.78926 988.886 -3.82208e+07 682.111 682.111 682.111 1658.94 2341.06 1658.94 2341.06 1658.94 2341.06 3.17369e+08 0.25
Loop time of 5.63516 on 4 procs for 60000 steps with 1000 atoms

# run_style
run_style verlet

# write restart
write_restart ./pgnpmf/46/equpmf69.res
System init for write_restart ...
Generated 0 of 1 mixed pair_coeff terms from geometric mixing rule
