LAMMPS (23 Jun 2022 - Update 1)
# Read restart
read_restart ./pgnpmf/37/equpmf31.res
Reading restart file ...
  restart file = 23 Jun 2022, LAMMPS = 23 Jun 2022
  restoring atom style atomic from restart
  orthogonal box = (1978.3426 1978.3426 1978.3426) to (3021.6574 3021.6574 3021.6574)
  restoring pair style table from restart
  1000 atoms
  read_restart CPU = 0.017 seconds

# Settings

pair_style table spline 9941

pair_coeff 1 1 ./pgnpmf/N20.txt DE_GNP 75.6
pair_coeff 2 2 ./pgnpmf/N100.txt DE_GNP 115.92
pair_coeff 1 2 ./pgnpmf/mixed_potential.txt DE_GNP 95.66

#Neigh_list Calc Frequency

neigh_modify delay 0 every 1 check yes

# Saving Frequency (50 frames)

variable ts_save equal 5000

# Dump
#dump_modify 1 first no sort id
#dump 2 all cfg 50000 ./equilibration/trajectory/ovito/dumpgen.tens_*.cfg mass type xs ys zs fx fy fz

# thermo_style
thermo_style custom step temp press pe density ke etotal lx ly lz xlo xhi ylo yhi zlo zhi vol dt time cpu tpcpu spcpu cpuremain

# run info
timestep 0.5
thermo 200

# fix

fix 1 all momentum 1000 linear 1 1 1 angular
variable T equal 300
fix 2 all nvt temp 300 370000 100.0

run 100000
Generated 0 of 1 mixed pair_coeff terms from geometric mixing rule
Unused restart file global fix info:
  fix style: npt, fix ID: 5
  update every 1 steps, delay 0 steps, check yes
Step          Temp          Press          PotEng        Density         KinEng         TotEng           Lx             Ly             Lz            Xlo            Xhi            Ylo            Yhi            Zlo            Zhi           Volume           Dt            Time           CPU           T/CPU          S/CPU         CPULeft
21705000   305.48242      1.2878606     -35326455       0.52929865     909.67448     -35325545       1043.3148      1043.3148      1043.3148      1978.3426      3021.6574      1978.3426      3021.6574      1978.3426      3021.6574      1.135654e+09   0.5            10855000       0              0              0              0
Averages over the last 251 of 501 rows, steps 21755000 to 21805000:
Temp Press PotEng Density KinEng TotEng Lx Ly Lz Xlo Xhi Ylo Yhi Zlo Zhi Volume Dt
277249 22.4298 -3.44797e+07 0.529299 825601 -3.36541e+07 1043.31 1043.31 1043.31 1978.34 3021.66 1978.34 3021.66 1978.34 3021.66 1.13565e+09 0.5
Loop time of 9.8254 on 4 procs for 100000 steps with 1000 atoms

unfix 2

fix 3 all nvt temp 370000 370000 $(100.0*dt) #iso 1.0 1.0 $(1000.0*dt)
fix 3 all nvt temp 370000 370000 50

run 200000
Generated 0 of 1 mixed pair_coeff terms from geometric mixing rule
Step          Temp          Press          PotEng        Density         KinEng         TotEng           Lx             Ly             Lz            Xlo            Xhi            Ylo            Yhi            Zlo            Zhi           Volume           Dt            Time           CPU           T/CPU          S/CPU         CPULeft
21805000   375698.8       16.407247     -34085281       0.52929865     1118766.9     -32966514       1043.3148      1043.3148      1043.3148      1978.3426      3021.6574      1978.3426      3021.6574      1978.3426      3021.6574      1.135654e+09   0.5            10905000       0              0              0              0
Averages over the last 501 of 1001 rows, steps 21905000 to 22005000:
Temp Press PotEng Density KinEng TotEng Lx Ly Lz Xlo Xhi Ylo Yhi Zlo Zhi Volume Dt
370155 3.62705 -3.26391e+07 0.529299 1.10226e+06 -3.15369e+07 1043.31 1043.31 1043.31 1978.34 3021.66 1978.34 3021.66 1978.34 3021.66 1.13565e+09 0.5
Loop time of 19.336 on 4 procs for 200000 steps with 1000 atoms

unfix 3

fix 4 all nvt temp 370000 300 100.0

run 100000
Generated 0 of 1 mixed pair_coeff terms from geometric mixing rule
Step          Temp          Press          PotEng        Density         KinEng         TotEng           Lx             Ly             Lz            Xlo            Xhi            Ylo            Yhi            Zlo            Zhi           Volume           Dt            Time           CPU           T/CPU          S/CPU         CPULeft
22005000   384328.47      10.19194      -32556768       0.52929865     1144464.6     -31412303       1043.3148      1043.3148      1043.3148      1978.3426      3021.6574      1978.3426      3021.6574      1978.3426      3021.6574      1.135654e+09   0.5            11005000       0              0              0              0
Averages over the last 251 of 501 rows, steps 22055000 to 22105000:
Temp Press PotEng Density KinEng TotEng Lx Ly Lz Xlo Xhi Ylo Yhi Zlo Zhi Volume Dt
93181.1 -95.4448 -3.38153e+07 0.529299 277477 -3.35378e+07 1043.31 1043.31 1043.31 1978.34 3021.66 1978.34 3021.66 1978.34 3021.66 1.13565e+09 0.5
Loop time of 9.48014 on 4 procs for 100000 steps with 1000 atoms

unfix 4

fix 5 all npt temp 300 300 $(100.0*dt) iso 1.0 1.0 $(1000.0*dt)
fix 5 all npt temp 300 300 50 iso 1.0 1.0 $(1000.0*dt)
fix 5 all npt temp 300 300 50 iso 1.0 1.0 500

run 300000
Generated 0 of 1 mixed pair_coeff terms from geometric mixing rule
Step          Temp          Press          PotEng        Density         KinEng         TotEng           Lx             Ly             Lz            Xlo            Xhi            Ylo            Yhi            Zlo            Zhi           Volume           Dt            Time           CPU           T/CPU          S/CPU         CPULeft
22105000   1356.3911     -99.051333     -34376975       0.52929865     4039.101      -34372936       1043.3148      1043.3148      1043.3148      1978.3426      3021.6574      1978.3426      3021.6574      1978.3426      3021.6574      1.135654e+09   0.5            11055000       0              0              0              0
Averages over the last 751 of 1501 rows, steps 22255000 to 22405000:
Temp Press PotEng Density KinEng TotEng Lx Ly Lz Xlo Xhi Ylo Yhi Zlo Zhi Volume Dt
308.195 1.02397 -3.48194e+07 0.542545 917.752 -3.48185e+07 1034.76 1034.76 1034.76 1982.62 3017.38 1982.62 3017.38 1982.62 3017.38 1.10793e+09 0.5
Loop time of 34.7649 on 4 procs for 300000 steps with 1000 atoms

# run_style
run_style verlet

# write restart
write_restart ./pgnpmf/37/equpmf32.res
System init for write_restart ...
Generated 0 of 1 mixed pair_coeff terms from geometric mixing rule
