LAMMPS (23 Jun 2022 - Update 1)
# Read restart
read_restart ./pgnpmf/37/equpmf22.res
Reading restart file ...
  restart file = 23 Jun 2022, LAMMPS = 23 Jun 2022
  restoring atom style atomic from restart
  orthogonal box = (1939.7957 1939.7957 1939.7957) to (3060.2043 3060.2043 3060.2043)
  restoring pair style table from restart
  1000 atoms
  read_restart CPU = 0.018 seconds

# Settings

pair_style table spline 9941

pair_coeff 1 1 ./pgnpmf/N20.txt DE_GNP 75.6
pair_coeff 2 2 ./pgnpmf/N100.txt DE_GNP 115.92
pair_coeff 1 2 ./pgnpmf/mixed_potential.txt DE_GNP 95.66

#Neigh_list Calc Frequency

neigh_modify delay 0 every 1 check yes

# Saving Frequency (50 frames)

variable ts_save equal 5000

# Dump
#dump_modify 1 first no sort id
#dump 2 all cfg 50000 ./equilibration/trajectory/ovito/dumpgen.tens_*.cfg mass type xs ys zs fx fy fz

# thermo_style
thermo_style custom step temp press pe density ke etotal lx ly lz xlo xhi ylo yhi zlo zhi vol dt time cpu tpcpu spcpu cpuremain

# run info
timestep 0.5
thermo 200

# fix

fix 1 all momentum 1000 linear 1 1 1 angular
variable T equal 300
fix 2 all nvt temp 300 370000 100.0

run 100000
Generated 0 of 1 mixed pair_coeff terms from geometric mixing rule
Unused restart file global fix info:
  fix style: npt, fix ID: 5
  update every 1 steps, delay 0 steps, check yes
Step          Temp          Press          PotEng        Density         KinEng         TotEng           Lx             Ly             Lz            Xlo            Xhi            Ylo            Yhi            Zlo            Zhi           Volume           Dt            Time           CPU           T/CPU          S/CPU         CPULeft
15405000   308.00047      0.52954061    -32572785       0.42738331     917.17282     -32571868       1120.4086      1120.4086      1120.4086      1939.7957      3060.2043      1939.7957      3060.2043      1939.7957      3060.2043      1.4064661e+09  0.5            7705000        0              0              0              0
Averages over the last 251 of 501 rows, steps 15455000 to 15505000:
Temp Press PotEng Density KinEng TotEng Lx Ly Lz Xlo Xhi Ylo Yhi Zlo Zhi Volume Dt
277192 49.3775 -3.21608e+07 0.427383 825430 -3.13354e+07 1120.41 1120.41 1120.41 1939.8 3060.2 1939.8 3060.2 1939.8 3060.2 1.40647e+09 0.5
Loop time of 9.47433 on 4 procs for 100000 steps with 1000 atoms

unfix 2

fix 3 all nvt temp 370000 370000 $(100.0*dt) #iso 1.0 1.0 $(1000.0*dt)
fix 3 all nvt temp 370000 370000 50

run 200000
Generated 0 of 1 mixed pair_coeff terms from geometric mixing rule
Step          Temp          Press          PotEng        Density         KinEng         TotEng           Lx             Ly             Lz            Xlo            Xhi            Ylo            Yhi            Zlo            Zhi           Volume           Dt            Time           CPU           T/CPU          S/CPU         CPULeft
15505000   372666.26      34.89757      -31641698       0.42738331     1109736.5     -30531962       1120.4086      1120.4086      1120.4086      1939.7957      3060.2043      1939.7957      3060.2043      1939.7957      3060.2043      1.4064661e+09  0.5            7755000        0              0              0              0
Averages over the last 501 of 1001 rows, steps 15605000 to 15705000:
Temp Press PotEng Density KinEng TotEng Lx Ly Lz Xlo Xhi Ylo Yhi Zlo Zhi Volume Dt
369929 4.25349 -3.1107e+07 0.427383 1.10159e+06 -3.00054e+07 1120.41 1120.41 1120.41 1939.8 3060.2 1939.8 3060.2 1939.8 3060.2 1.40647e+09 0.5
Loop time of 18.9511 on 4 procs for 200000 steps with 1000 atoms

unfix 3

fix 4 all nvt temp 370000 300 100.0

run 100000
Generated 0 of 1 mixed pair_coeff terms from geometric mixing rule
Step          Temp          Press          PotEng        Density         KinEng         TotEng           Lx             Ly             Lz            Xlo            Xhi            Ylo            Yhi            Zlo            Zhi           Volume           Dt            Time           CPU           T/CPU          S/CPU         CPULeft
15705000   369188.62      18.876692     -31228572       0.42738331     1099380.7     -30129192       1120.4086      1120.4086      1120.4086      1939.7957      3060.2043      1939.7957      3060.2043      1939.7957      3060.2043      1.4064661e+09  0.5            7855000        0              0              0              0
Averages over the last 251 of 501 rows, steps 15755000 to 15805000:
Temp Press PotEng Density KinEng TotEng Lx Ly Lz Xlo Xhi Ylo Yhi Zlo Zhi Volume Dt
93186 -63.0541 -3.25503e+07 0.427383 277492 -3.22728e+07 1120.41 1120.41 1120.41 1939.8 3060.2 1939.8 3060.2 1939.8 3060.2 1.40647e+09 0.5
Loop time of 9.59614 on 4 procs for 100000 steps with 1000 atoms

unfix 4

fix 5 all npt temp 300 300 $(100.0*dt) iso 1.0 1.0 $(1000.0*dt)
fix 5 all npt temp 300 300 50 iso 1.0 1.0 $(1000.0*dt)
fix 5 all npt temp 300 300 50 iso 1.0 1.0 500

run 300000
Generated 0 of 1 mixed pair_coeff terms from geometric mixing rule
Step          Temp          Press          PotEng        Density         KinEng         TotEng           Lx             Ly             Lz            Xlo            Xhi            Ylo            Yhi            Zlo            Zhi           Volume           Dt            Time           CPU           T/CPU          S/CPU         CPULeft
15805000   1362.4661     -77.813602     -33087134       0.42738331     4057.1914     -33083077       1120.4086      1120.4086      1120.4086      1939.7957      3060.2043      1939.7957      3060.2043      1939.7957      3060.2043      1.4064661e+09  0.5            7905000        0              0              0              0
Averages over the last 751 of 1501 rows, steps 15955000 to 16105000:
Temp Press PotEng Density KinEng TotEng Lx Ly Lz Xlo Xhi Ylo Yhi Zlo Zhi Volume Dt
306.76 0.978223 -3.34567e+07 0.437165 913.48 -3.34558e+07 1111.99 1111.99 1111.99 1944 3056 1944 3056 1944 3056 1.375e+09 0.5
Loop time of 35.3762 on 4 procs for 300000 steps with 1000 atoms

# run_style
run_style verlet

# write restart
write_restart ./pgnpmf/37/equpmf23.res
System init for write_restart ...
Generated 0 of 1 mixed pair_coeff terms from geometric mixing rule
