LAMMPS (23 Jun 2022 - Update 1)
# Read restart
read_restart ./pgnpmf/37/equpmf41.res
Reading restart file ...
  restart file = 23 Jun 2022, LAMMPS = 23 Jun 2022
  restoring atom style atomic from restart
  orthogonal box = (2032.3446 2032.3446 2032.3446) to (2967.6554 2967.6554 2967.6554)
  restoring pair style table from restart
  1000 atoms
  read_restart CPU = 0.003 seconds

# Settings

pair_style table spline 9941

pair_coeff 1 1 ./pgnpmf/N20.txt DE_GNP 75.6
pair_coeff 2 2 ./pgnpmf/N100.txt DE_GNP 115.92
pair_coeff 1 2 ./pgnpmf/mixed_potential.txt DE_GNP 95.66

#Neigh_list Calc Frequency

neigh_modify delay 0 every 1 check yes

# Saving Frequency (50 frames)

variable ts_save equal 5000

# Dump
#dump_modify 1 first no sort id
#dump 2 all cfg 50000 ./equilibration/trajectory/ovito/dumpgen.tens_*.cfg mass type xs ys zs fx fy fz

# thermo_style
thermo_style custom step temp press pe density ke etotal lx ly lz xlo xhi ylo yhi zlo zhi vol dt time cpu tpcpu spcpu cpuremain

# run info
timestep 0.1
thermo 200

# fix

fix 1 all momentum 1000 linear 1 1 1 angular
variable T equal 300
fix 2 all nvt temp 300 370000 100.0

run 100000
Generated 0 of 1 mixed pair_coeff terms from geometric mixing rule
Unused restart file global fix info:
  fix style: npt, fix ID: 5
  update every 1 steps, delay 0 steps, check yes
Step          Temp          Press          PotEng        Density         KinEng         TotEng           Lx             Ly             Lz            Xlo            Xhi            Ylo            Yhi            Zlo            Zhi           Volume           Dt            Time           CPU           T/CPU          S/CPU         CPULeft
28705000   309.26015      1.6563813     -36244748       0.73464751     920.92391     -36243828       935.31078      935.31078      935.31078      2032.3446      2967.6554      2032.3446      2967.6554      2032.3446      2967.6554      8.1821572e+08  0.1            13795000       0              0              0              0
Averages over the last 251 of 501 rows, steps 28755000 to 28805000:
Temp Press PotEng Density KinEng TotEng Lx Ly Lz Xlo Xhi Ylo Yhi Zlo Zhi Volume Dt
276712 8.00958 -3.62906e+07 0.734648 824001 -3.54666e+07 935.311 935.311 935.311 2032.34 2967.66 2032.34 2967.66 2032.34 2967.66 8.18216e+08 0.1
Loop time of 16.0596 on 1 procs for 100000 steps with 1000 atoms

unfix 2

fix 3 all nvt temp 370000 370000 $(100.0*dt) #iso 1.0 1.0 $(1000.0*dt)
fix 3 all nvt temp 370000 370000 10

run 200000
Generated 0 of 1 mixed pair_coeff terms from geometric mixing rule
Step          Temp          Press          PotEng        Density         KinEng         TotEng           Lx             Ly             Lz            Xlo            Xhi            Ylo            Yhi            Zlo            Zhi           Volume           Dt            Time           CPU           T/CPU          S/CPU         CPULeft
28805000   379692.96      209.69255     -36237459       0.73464751     1130660.8     -35106798       935.31078      935.31078      935.31078      2032.3446      2967.6554      2032.3446      2967.6554      2032.3446      2967.6554      8.1821572e+08  0.1            13805000       0              0              0              0
Averages over the last 501 of 1001 rows, steps 28905000 to 29005000:
Temp Press PotEng Density KinEng TotEng Lx Ly Lz Xlo Xhi Ylo Yhi Zlo Zhi Volume Dt
370221 138.6 -3.57886e+07 0.734648 1.10246e+06 -3.46861e+07 935.311 935.311 935.311 2032.34 2967.66 2032.34 2967.66 2032.34 2967.66 8.18216e+08 0.1
Loop time of 32.8403 on 1 procs for 200000 steps with 1000 atoms

unfix 3

fix 4 all nvt temp 370000 300 100.0

run 100000
Generated 0 of 1 mixed pair_coeff terms from geometric mixing rule
Step          Temp          Press          PotEng        Density         KinEng         TotEng           Lx             Ly             Lz            Xlo            Xhi            Ylo            Yhi            Zlo            Zhi           Volume           Dt            Time           CPU           T/CPU          S/CPU         CPULeft
29005000   390997.77      75.295984     -35500073       0.73464751     1164324.6     -34335748       935.31078      935.31078      935.31078      2032.3446      2967.6554      2032.3446      2967.6554      2032.3446      2967.6554      8.1821572e+08  0.1            13825000       0              0              0              0
Averages over the last 251 of 501 rows, steps 29055000 to 29105000:
Temp Press PotEng Density KinEng TotEng Lx Ly Lz Xlo Xhi Ylo Yhi Zlo Zhi Volume Dt
95820.6 -347.827 -3.53954e+07 0.734648 285337 -3.511e+07 935.311 935.311 935.311 2032.34 2967.66 2032.34 2967.66 2032.34 2967.66 8.18216e+08 0.1
Loop time of 16.1564 on 1 procs for 100000 steps with 1000 atoms

unfix 4

fix 5 all npt temp 300 300 $(100.0*dt) iso 1.0 1.0 $(1000.0*dt)
fix 5 all npt temp 300 300 10 iso 1.0 1.0 $(1000.0*dt)
fix 5 all npt temp 300 300 10 iso 1.0 1.0 100

run 300000
Generated 0 of 1 mixed pair_coeff terms from geometric mixing rule
Step          Temp          Press          PotEng        Density         KinEng         TotEng           Lx             Ly             Lz            Xlo            Xhi            Ylo            Yhi            Zlo            Zhi           Volume           Dt            Time           CPU           T/CPU          S/CPU         CPULeft
29105000   5021.3682     -488.87928     -35502384       0.73464751     14952.777     -35487431       935.31078      935.31078      935.31078      2032.3446      2967.6554      2032.3446      2967.6554      2032.3446      2967.6554      8.1821572e+08  0.1            13835000       0              0              0              0
Averages over the last 751 of 1501 rows, steps 29255000 to 29405000:
Temp Press PotEng Density KinEng TotEng Lx Ly Lz Xlo Xhi Ylo Yhi Zlo Zhi Volume Dt
311.482 1.00246 -3.63506e+07 0.771588 927.539 -3.63497e+07 920.141 920.141 920.141 2039.93 2960.07 2039.93 2960.07 2039.93 2960.07 7.79046e+08 0.1
Loop time of 57.0982 on 1 procs for 300000 steps with 1000 atoms

# run_style
run_style verlet

# write restart
write_restart ./pgnpmf/37/equpmf42.res
System init for write_restart ...
Generated 0 of 1 mixed pair_coeff terms from geometric mixing rule
