LAMMPS (23 Jun 2022 - Update 1)
# Read restart
read_restart ./pgnpmf/37/equpmf82.res
Reading restart file ...
  restart file = 23 Jun 2022, LAMMPS = 23 Jun 2022
  restoring atom style atomic from restart
  orthogonal box = (2147.393 2147.393 2147.393) to (2852.607 2852.607 2852.607)
  restoring pair style table from restart
  1000 atoms
  read_restart CPU = 0.003 seconds

# Settings

pair_style table spline 9941

pair_coeff 1 1 ./pgnpmf/N20.txt DE_GNP 75.6
pair_coeff 2 2 ./pgnpmf/N100.txt DE_GNP 115.92
pair_coeff 1 2 ./pgnpmf/mixed_potential.txt DE_GNP 95.66

#Neigh_list Calc Frequency

neigh_modify delay 0 every 1 check yes

# Saving Frequency (50 frames)

variable ts_save equal 5000

# Dump
#dump_modify 1 first no sort id
#dump 2 all cfg 50000 ./equilibration/trajectory/ovito/dumpgen.tens_*.cfg mass type xs ys zs fx fy fz

# thermo_style
thermo_style custom step temp press pe density ke etotal lx ly lz xlo xhi ylo yhi zlo zhi vol dt time cpu tpcpu spcpu cpuremain

# run info
timestep 0.1
thermo 200

# fix

fix 1 all momentum 1000 linear 1 1 1 angular
variable T equal 300
fix 2 all nvt temp 300 370000 100.0

run 100000
Generated 0 of 1 mixed pair_coeff terms from geometric mixing rule
Unused restart file global fix info:
  fix style: npt, fix ID: 5
  update every 1 steps, delay 0 steps, check yes
Step          Temp          Press          PotEng        Density         KinEng         TotEng           Lx             Ly             Lz            Xlo            Xhi            Ylo            Yhi            Zlo            Zhi           Volume           Dt            Time           CPU           T/CPU          S/CPU         CPULeft
57405000   305.6742       1.611317      -44109940       1.713894       910.24556     -44109030       705.21406      705.21406      705.21406      2147.393       2852.607       2147.393       2852.607       2147.393       2852.607       3.507219e+08   0.1            16665000       0              0              0              0
Averages over the last 251 of 501 rows, steps 57455000 to 57505000:
Temp Press PotEng Density KinEng TotEng Lx Ly Lz Xlo Xhi Ylo Yhi Zlo Zhi Volume Dt
276912 320.128 -4.38316e+07 1.71389 824596 -4.3007e+07 705.214 705.214 705.214 2147.39 2852.61 2147.39 2852.61 2147.39 2852.61 3.50722e+08 0.1
Loop time of 20.7711 on 1 procs for 100000 steps with 1000 atoms

unfix 2

fix 3 all nvt temp 370000 370000 $(100.0*dt) #iso 1.0 1.0 $(1000.0*dt)
fix 3 all nvt temp 370000 370000 10

run 200000
Generated 0 of 1 mixed pair_coeff terms from geometric mixing rule
Step          Temp          Press          PotEng        Density         KinEng         TotEng           Lx             Ly             Lz            Xlo            Xhi            Ylo            Yhi            Zlo            Zhi           Volume           Dt            Time           CPU           T/CPU          S/CPU         CPULeft
57505000   371758.75      654.96754     -43690558       1.713894       1107034.1     -42583524       705.21406      705.21406      705.21406      2147.393       2852.607       2147.393       2852.607       2147.393       2852.607       3.507219e+08   0.1            16675000       0              0              0              0
Averages over the last 501 of 1001 rows, steps 57605000 to 57705000:
Temp Press PotEng Density KinEng TotEng Lx Ly Lz Xlo Xhi Ylo Yhi Zlo Zhi Volume Dt
369874 1663.27 -4.3128e+07 1.71389 1.10142e+06 -4.20266e+07 705.214 705.214 705.214 2147.39 2852.61 2147.39 2852.61 2147.39 2852.61 3.50722e+08 0.1
Loop time of 42.39 on 1 procs for 200000 steps with 1000 atoms

unfix 3

fix 4 all nvt temp 370000 300 100.0

run 100000
Generated 0 of 1 mixed pair_coeff terms from geometric mixing rule
Step          Temp          Press          PotEng        Density         KinEng         TotEng           Lx             Ly             Lz            Xlo            Xhi            Ylo            Yhi            Zlo            Zhi           Volume           Dt            Time           CPU           T/CPU          S/CPU         CPULeft
57705000   372650.15      1848.3097     -43094134       1.713894       1109688.5     -41984446       705.21406      705.21406      705.21406      2147.393       2852.607       2147.393       2852.607       2147.393       2852.607       3.507219e+08   0.1            16695000       0              0              0              0
Averages over the last 251 of 501 rows, steps 57755000 to 57805000:
Temp Press PotEng Density KinEng TotEng Lx Ly Lz Xlo Xhi Ylo Yhi Zlo Zhi Volume Dt
96633.2 802.31 -4.35556e+07 1.71389 287757 -4.32678e+07 705.214 705.214 705.214 2147.39 2852.61 2147.39 2852.61 2147.39 2852.61 3.50722e+08 0.1
Loop time of 21.137 on 1 procs for 100000 steps with 1000 atoms

unfix 4

fix 5 all npt temp 300 300 $(100.0*dt) iso 1.0 1.0 $(1000.0*dt)
fix 5 all npt temp 300 300 10 iso 1.0 1.0 $(1000.0*dt)
fix 5 all npt temp 300 300 10 iso 1.0 1.0 100

run 300000
Generated 0 of 1 mixed pair_coeff terms from geometric mixing rule
Step          Temp          Press          PotEng        Density         KinEng         TotEng           Lx             Ly             Lz            Xlo            Xhi            Ylo            Yhi            Zlo            Zhi           Volume           Dt            Time           CPU           T/CPU          S/CPU         CPULeft
57805000   5215.3339      382.85397     -43778095       1.713894       15530.374     -43762564       705.21406      705.21406      705.21406      2147.393       2852.607       2147.393       2852.607       2147.393       2852.607       3.507219e+08   0.1            16705000       0              0              0              0
Averages over the last 751 of 1501 rows, steps 57955000 to 58105000:
Temp Press PotEng Density KinEng TotEng Lx Ly Lz Xlo Xhi Ylo Yhi Zlo Zhi Volume Dt
306.274 1.12122 -4.38892e+07 1.70999 912.031 -4.38882e+07 705.75 705.75 705.75 2147.13 2852.87 2147.13 2852.87 2147.13 2852.87 3.51522e+08 0.1
Loop time of 71.1611 on 1 procs for 300000 steps with 1000 atoms

# run_style
run_style verlet

# write restart
write_restart ./pgnpmf/37/equpmf83.res
System init for write_restart ...
Generated 0 of 1 mixed pair_coeff terms from geometric mixing rule
