LAMMPS (23 Jun 2022 - Update 1)
# Read restart
read_restart ./pgnpmf/37/equpmf27.res
Reading restart file ...
  restart file = 23 Jun 2022, LAMMPS = 23 Jun 2022
  restoring atom style atomic from restart
  orthogonal box = (1961.2474 1961.2474 1961.2474) to (3038.7526 3038.7526 3038.7526)
  restoring pair style table from restart
  1000 atoms
  read_restart CPU = 0.017 seconds

# Settings

pair_style table spline 9941

pair_coeff 1 1 ./pgnpmf/N20.txt DE_GNP 75.6
pair_coeff 2 2 ./pgnpmf/N100.txt DE_GNP 115.92
pair_coeff 1 2 ./pgnpmf/mixed_potential.txt DE_GNP 95.66

#Neigh_list Calc Frequency

neigh_modify delay 0 every 1 check yes

# Saving Frequency (50 frames)

variable ts_save equal 5000

# Dump
#dump_modify 1 first no sort id
#dump 2 all cfg 50000 ./equilibration/trajectory/ovito/dumpgen.tens_*.cfg mass type xs ys zs fx fy fz

# thermo_style
thermo_style custom step temp press pe density ke etotal lx ly lz xlo xhi ylo yhi zlo zhi vol dt time cpu tpcpu spcpu cpuremain

# run info
timestep 0.5
thermo 200

# fix

fix 1 all momentum 1000 linear 1 1 1 angular
variable T equal 300
fix 2 all nvt temp 300 370000 100.0

run 100000
Generated 0 of 1 mixed pair_coeff terms from geometric mixing rule
Unused restart file global fix info:
  fix style: npt, fix ID: 5
  update every 1 steps, delay 0 steps, check yes
Step          Temp          Press          PotEng        Density         KinEng         TotEng           Lx             Ly             Lz            Xlo            Xhi            Ylo            Yhi            Zlo            Zhi           Volume           Dt            Time           CPU           T/CPU          S/CPU         CPULeft
18905000   306.94436      0.97042961    -34334411       0.48049488     914.02788     -34333497       1077.5052      1077.5052      1077.5052      1961.2474      3038.7526      1961.2474      3038.7526      1961.2474      3038.7526      1.2510022e+09  0.5            9455000        0              0              0              0
Averages over the last 251 of 501 rows, steps 18955000 to 19005000:
Temp Press PotEng Density KinEng TotEng Lx Ly Lz Xlo Xhi Ylo Yhi Zlo Zhi Volume Dt
277259 10.1172 -3.3715e+07 0.480495 825631 -3.28893e+07 1077.51 1077.51 1077.51 1961.25 3038.75 1961.25 3038.75 1961.25 3038.75 1.251e+09 0.5
Loop time of 10.2418 on 4 procs for 100000 steps with 1000 atoms

unfix 2

fix 3 all nvt temp 370000 370000 $(100.0*dt) #iso 1.0 1.0 $(1000.0*dt)
fix 3 all nvt temp 370000 370000 50

run 200000
Generated 0 of 1 mixed pair_coeff terms from geometric mixing rule
Step          Temp          Press          PotEng        Density         KinEng         TotEng           Lx             Ly             Lz            Xlo            Xhi            Ylo            Yhi            Zlo            Zhi           Volume           Dt            Time           CPU           T/CPU          S/CPU         CPULeft
19005000   378438.94     -20.982696     -32987955       0.48049488     1126926.6     -31861029       1077.5052      1077.5052      1077.5052      1961.2474      3038.7526      1961.2474      3038.7526      1961.2474      3038.7526      1.2510022e+09  0.5            9505000        0              0              0              0
Averages over the last 501 of 1001 rows, steps 19105000 to 19205000:
Temp Press PotEng Density KinEng TotEng Lx Ly Lz Xlo Xhi Ylo Yhi Zlo Zhi Volume Dt
370148 21.3868 -3.24733e+07 0.480495 1.10224e+06 -3.13711e+07 1077.51 1077.51 1077.51 1961.25 3038.75 1961.25 3038.75 1961.25 3038.75 1.251e+09 0.5
Loop time of 20.5275 on 4 procs for 200000 steps with 1000 atoms

unfix 3

fix 4 all nvt temp 370000 300 100.0

run 100000
Generated 0 of 1 mixed pair_coeff terms from geometric mixing rule
Step          Temp          Press          PotEng        Density         KinEng         TotEng           Lx             Ly             Lz            Xlo            Xhi            Ylo            Yhi            Zlo            Zhi           Volume           Dt            Time           CPU           T/CPU          S/CPU         CPULeft
19205000   368439.15      4.9562137     -32451095       0.48049488     1097148.9     -31353946       1077.5052      1077.5052      1077.5052      1961.2474      3038.7526      1961.2474      3038.7526      1961.2474      3038.7526      1.2510022e+09  0.5            9605000        0              0              0              0
Averages over the last 251 of 501 rows, steps 19255000 to 19305000:
Temp Press PotEng Density KinEng TotEng Lx Ly Lz Xlo Xhi Ylo Yhi Zlo Zhi Volume Dt
93238.3 -85.2897 -3.37127e+07 0.480495 277648 -3.3435e+07 1077.51 1077.51 1077.51 1961.25 3038.75 1961.25 3038.75 1961.25 3038.75 1.251e+09 0.5
Loop time of 10.2684 on 4 procs for 100000 steps with 1000 atoms

unfix 4

fix 5 all npt temp 300 300 $(100.0*dt) iso 1.0 1.0 $(1000.0*dt)
fix 5 all npt temp 300 300 50 iso 1.0 1.0 $(1000.0*dt)
fix 5 all npt temp 300 300 50 iso 1.0 1.0 500

run 300000
Generated 0 of 1 mixed pair_coeff terms from geometric mixing rule
Step          Temp          Press          PotEng        Density         KinEng         TotEng           Lx             Ly             Lz            Xlo            Xhi            Ylo            Yhi            Zlo            Zhi           Volume           Dt            Time           CPU           T/CPU          S/CPU         CPULeft
19305000   1349.3845     -92.706809     -34263837       0.48049488     4018.2367     -34259818       1077.5052      1077.5052      1077.5052      1961.2474      3038.7526      1961.2474      3038.7526      1961.2474      3038.7526      1.2510022e+09  0.5            9655000        0              0              0              0
Averages over the last 751 of 1501 rows, steps 19455000 to 19605000:
Temp Press PotEng Density KinEng TotEng Lx Ly Lz Xlo Xhi Ylo Yhi Zlo Zhi Volume Dt
307.364 1.03631 -3.45997e+07 0.492121 915.278 -3.45988e+07 1068.95 1068.95 1068.95 1965.52 3034.48 1965.52 3034.48 1965.52 3034.48 1.22145e+09 0.5
Loop time of 37.0318 on 4 procs for 300000 steps with 1000 atoms

# run_style
run_style verlet

# write restart
write_restart ./pgnpmf/37/equpmf28.res
System init for write_restart ...
Generated 0 of 1 mixed pair_coeff terms from geometric mixing rule
