LAMMPS (23 Jun 2022 - Update 1)
# Read restart
read_restart ./pgnpmf/37/equpmf4.res
Reading restart file ...
  restart file = 23 Jun 2022, LAMMPS = 23 Jun 2022
  restoring atom style atomic from restart
  orthogonal box = (1611.9892 1611.9892 1611.9892) to (3388.0108 3388.0108 3388.0108)
  restoring pair style table from restart
  1000 atoms
  read_restart CPU = 0.018 seconds

# Settings

pair_style table spline 9941

pair_coeff 1 1 ./pgnpmf/N20.txt DE_GNP 75.6
pair_coeff 2 2 ./pgnpmf/N100.txt DE_GNP 115.92
pair_coeff 1 2 ./pgnpmf/mixed_potential.txt DE_GNP 95.66

#Neigh_list Calc Frequency

neigh_modify delay 0 every 1 check yes

# Saving Frequency (50 frames)

variable ts_save equal 5000

# Dump
#dump_modify 1 first no sort id
#dump 2 all cfg 50000 ./equilibration/trajectory/ovito/dumpgen.tens_*.cfg mass type xs ys zs fx fy fz

# thermo_style
thermo_style custom step temp press pe density ke etotal lx ly lz xlo xhi ylo yhi zlo zhi vol dt time cpu tpcpu spcpu cpuremain

# run info
timestep 0.5
thermo 200

# fix

fix 1 all momentum 1000 linear 1 1 1 angular
variable T equal 300
fix 2 all nvt temp 300 370000 100.0

run 100000
Generated 0 of 1 mixed pair_coeff terms from geometric mixing rule
Unused restart file global fix info:
  fix style: npt, fix ID: 5
  update every 1 steps, delay 0 steps, check yes
Step          Temp          Press          PotEng        Density         KinEng         TotEng           Lx             Ly             Lz            Xlo            Xhi            Ylo            Yhi            Zlo            Zhi           Volume           Dt            Time           CPU           T/CPU          S/CPU         CPULeft
2805000   311.22072      1.0573431     -6097688.7      0.1073006      926.76215     -6096761.9      1776.0216      1776.0216      1776.0216      1611.9892      3388.0108      1611.9892      3388.0108      1611.9892      3388.0108      5.6020206e+09  0.5            1405000        0              0              0              0
Averages over the last 251 of 501 rows, steps 2855000 to 2905000:
Temp Press PotEng Density KinEng TotEng Lx Ly Lz Xlo Xhi Ylo Yhi Zlo Zhi Volume Dt
277580 4.44553 -5.85832e+06 0.107301 826586 -5.03174e+06 1776.02 1776.02 1776.02 1611.99 3388.01 1611.99 3388.01 1611.99 3388.01 5.60202e+09 0.5
Loop time of 4.57338 on 4 procs for 100000 steps with 1000 atoms

unfix 2

fix 3 all nvt temp 370000 370000 $(100.0*dt) #iso 1.0 1.0 $(1000.0*dt)
fix 3 all nvt temp 370000 370000 50

run 200000
Generated 0 of 1 mixed pair_coeff terms from geometric mixing rule
Step          Temp          Press          PotEng        Density         KinEng         TotEng           Lx             Ly             Lz            Xlo            Xhi            Ylo            Yhi            Zlo            Zhi           Volume           Dt            Time           CPU           T/CPU          S/CPU         CPULeft
2905000   360421.11      6.0597507     -5733795.3      0.1073006      1073272.5     -4660522.8      1776.0216      1776.0216      1776.0216      1611.9892      3388.0108      1611.9892      3388.0108      1611.9892      3388.0108      5.6020206e+09  0.5            1455000        0              0              0              0
Averages over the last 501 of 1001 rows, steps 3005000 to 3105000:
Temp Press PotEng Density KinEng TotEng Lx Ly Lz Xlo Xhi Ylo Yhi Zlo Zhi Volume Dt
369823 5.63309 -6.1438e+06 0.107301 1.10127e+06 -5.04253e+06 1776.02 1776.02 1776.02 1611.99 3388.01 1611.99 3388.01 1611.99 3388.01 5.60202e+09 0.5
Loop time of 9.08324 on 4 procs for 200000 steps with 1000 atoms

unfix 3

fix 4 all nvt temp 370000 300 100.0

run 100000
Generated 0 of 1 mixed pair_coeff terms from geometric mixing rule
Step          Temp          Press          PotEng        Density         KinEng         TotEng           Lx             Ly             Lz            Xlo            Xhi            Ylo            Yhi            Zlo            Zhi           Volume           Dt            Time           CPU           T/CPU          S/CPU         CPULeft
3105000   365933.54      5.7555856     -6357211.7      0.1073006      1089687.6     -5267524.1      1776.0216      1776.0216      1776.0216      1611.9892      3388.0108      1611.9892      3388.0108      1611.9892      3388.0108      5.6020206e+09  0.5            1555000        0              0              0              0
Averages over the last 251 of 501 rows, steps 3155000 to 3205000:
Temp Press PotEng Density KinEng TotEng Lx Ly Lz Xlo Xhi Ylo Yhi Zlo Zhi Volume Dt
92950.6 -4.05936 -6.85502e+06 0.107301 276791 -6.57823e+06 1776.02 1776.02 1776.02 1611.99 3388.01 1611.99 3388.01 1611.99 3388.01 5.60202e+09 0.5
Loop time of 4.52684 on 4 procs for 100000 steps with 1000 atoms

unfix 4

fix 5 all npt temp 300 300 $(100.0*dt) iso 1.0 1.0 $(1000.0*dt)
fix 5 all npt temp 300 300 50 iso 1.0 1.0 $(1000.0*dt)
fix 5 all npt temp 300 300 50 iso 1.0 1.0 500

run 300000
Generated 0 of 1 mixed pair_coeff terms from geometric mixing rule
Step          Temp          Press          PotEng        Density         KinEng         TotEng           Lx             Ly             Lz            Xlo            Xhi            Ylo            Yhi            Zlo            Zhi           Volume           Dt            Time           CPU           T/CPU          S/CPU         CPULeft
3205000   1359.5287     -8.283204      -7171715.6      0.1073006      4048.4443     -7167667.1      1776.0216      1776.0216      1776.0216      1611.9892      3388.0108      1611.9892      3388.0108      1611.9892      3388.0108      5.6020206e+09  0.5            1605000        0              0              0              0
Averages over the last 751 of 1501 rows, steps 3355000 to 3505000:
Temp Press PotEng Density KinEng TotEng Lx Ly Lz Xlo Xhi Ylo Yhi Zlo Zhi Volume Dt
312.515 0.998431 -7.78168e+06 0.124807 930.616 -7.78075e+06 1688.97 1688.97 1688.97 1655.51 3344.49 1655.51 3344.49 1655.51 3344.49 4.81888e+09 0.5
Loop time of 20.0486 on 4 procs for 300000 steps with 1000 atoms

# run_style
run_style verlet

# write restart
write_restart ./pgnpmf/37/equpmf5.res
System init for write_restart ...
Generated 0 of 1 mixed pair_coeff terms from geometric mixing rule
