LAMMPS (23 Jun 2022 - Update 1)
# Read restart
read_restart ./pgnpmf/37/equpmf72.res
Reading restart file ...
  restart file = 23 Jun 2022, LAMMPS = 23 Jun 2022
  restoring atom style atomic from restart
  orthogonal box = (2145.6511 2145.6511 2145.6511) to (2854.3489 2854.3489 2854.3489)
  restoring pair style table from restart
  1000 atoms
  read_restart CPU = 0.004 seconds

# Settings

pair_style table spline 9941

pair_coeff 1 1 ./pgnpmf/N20.txt DE_GNP 75.6
pair_coeff 2 2 ./pgnpmf/N100.txt DE_GNP 115.92
pair_coeff 1 2 ./pgnpmf/mixed_potential.txt DE_GNP 95.66

#Neigh_list Calc Frequency

neigh_modify delay 0 every 1 check yes

# Saving Frequency (50 frames)

variable ts_save equal 5000

# Dump
#dump_modify 1 first no sort id
#dump 2 all cfg 50000 ./equilibration/trajectory/ovito/dumpgen.tens_*.cfg mass type xs ys zs fx fy fz

# thermo_style
thermo_style custom step temp press pe density ke etotal lx ly lz xlo xhi ylo yhi zlo zhi vol dt time cpu tpcpu spcpu cpuremain

# run info
timestep 0.1
thermo 200

# fix

fix 1 all momentum 1000 linear 1 1 1 angular
variable T equal 300
fix 2 all nvt temp 300 370000 100.0

run 100000
Generated 0 of 1 mixed pair_coeff terms from geometric mixing rule
Unused restart file global fix info:
  fix style: npt, fix ID: 5
  update every 1 steps, delay 0 steps, check yes
Step          Temp          Press          PotEng        Density         KinEng         TotEng           Lx             Ly             Lz            Xlo            Xhi            Ylo            Yhi            Zlo            Zhi           Volume           Dt            Time           CPU           T/CPU          S/CPU         CPULeft
50405000   305.43706      5.9722492     -43590434       1.6887438      909.5394      -43589524       708.6977       708.6977       708.6977       2145.6511      2854.3489      2145.6511      2854.3489      2145.6511      2854.3489      3.5594515e+08  0.1            15965000       0              0              0              0
Averages over the last 251 of 501 rows, steps 50455000 to 50505000:
Temp Press PotEng Density KinEng TotEng Lx Ly Lz Xlo Xhi Ylo Yhi Zlo Zhi Volume Dt
277989 711.738 -4.32963e+07 1.68874 827805 -4.24685e+07 708.698 708.698 708.698 2145.65 2854.35 2145.65 2854.35 2145.65 2854.35 3.55945e+08 0.1
Loop time of 20.309 on 1 procs for 100000 steps with 1000 atoms

unfix 2

fix 3 all nvt temp 370000 370000 $(100.0*dt) #iso 1.0 1.0 $(1000.0*dt)
fix 3 all nvt temp 370000 370000 10

run 200000
Generated 0 of 1 mixed pair_coeff terms from geometric mixing rule
Step          Temp          Press          PotEng        Density         KinEng         TotEng           Lx             Ly             Lz            Xlo            Xhi            Ylo            Yhi            Zlo            Zhi           Volume           Dt            Time           CPU           T/CPU          S/CPU         CPULeft
50505000   368817.03      1193.1259     -43073627       1.6887438      1098274.1     -41975353       708.6977       708.6977       708.6977       2145.6511      2854.3489      2145.6511      2854.3489      2145.6511      2854.3489      3.5594515e+08  0.1            15975000       0              0              0              0
Averages over the last 501 of 1001 rows, steps 50605000 to 50705000:
Temp Press PotEng Density KinEng TotEng Lx Ly Lz Xlo Xhi Ylo Yhi Zlo Zhi Volume Dt
370068 1470.53 -4.28543e+07 1.68874 1.102e+06 -4.17523e+07 708.698 708.698 708.698 2145.65 2854.35 2145.65 2854.35 2145.65 2854.35 3.55945e+08 0.1
Loop time of 41.3959 on 1 procs for 200000 steps with 1000 atoms

unfix 3

fix 4 all nvt temp 370000 300 100.0

run 100000
Generated 0 of 1 mixed pair_coeff terms from geometric mixing rule
Step          Temp          Press          PotEng        Density         KinEng         TotEng           Lx             Ly             Lz            Xlo            Xhi            Ylo            Yhi            Zlo            Zhi           Volume           Dt            Time           CPU           T/CPU          S/CPU         CPULeft
50705000   356450.79      1610.4975     -42878314       1.6887438      1061449.6     -41816864       708.6977       708.6977       708.6977       2145.6511      2854.3489      2145.6511      2854.3489      2145.6511      2854.3489      3.5594515e+08  0.1            15995000       0              0              0              0
Averages over the last 251 of 501 rows, steps 50755000 to 50805000:
Temp Press PotEng Density KinEng TotEng Lx Ly Lz Xlo Xhi Ylo Yhi Zlo Zhi Volume Dt
96628.2 556.652 -4.3195e+07 1.68874 287742 -4.29073e+07 708.698 708.698 708.698 2145.65 2854.35 2145.65 2854.35 2145.65 2854.35 3.55945e+08 0.1
Loop time of 20.5713 on 1 procs for 100000 steps with 1000 atoms

unfix 4

fix 5 all npt temp 300 300 $(100.0*dt) iso 1.0 1.0 $(1000.0*dt)
fix 5 all npt temp 300 300 10 iso 1.0 1.0 $(1000.0*dt)
fix 5 all npt temp 300 300 10 iso 1.0 1.0 100

run 300000
Generated 0 of 1 mixed pair_coeff terms from geometric mixing rule
Step          Temp          Press          PotEng        Density         KinEng         TotEng           Lx             Ly             Lz            Xlo            Xhi            Ylo            Yhi            Zlo            Zhi           Volume           Dt            Time           CPU           T/CPU          S/CPU         CPULeft
50805000   5111.2691      124.41142     -43361428       1.6887438      15220.486     -43346208       708.6977       708.6977       708.6977       2145.6511      2854.3489      2145.6511      2854.3489      2145.6511      2854.3489      3.5594515e+08  0.1            16005000       0              0              0              0
Averages over the last 751 of 1501 rows, steps 50955000 to 51105000:
Temp Press PotEng Density KinEng TotEng Lx Ly Lz Xlo Xhi Ylo Yhi Zlo Zhi Volume Dt
306.223 0.77392 -4.35877e+07 1.69367 911.879 -4.35868e+07 708.01 708.01 708.01 2146 2854 2146 2854 2146 2854 3.5491e+08 0.1
Loop time of 69.94 on 1 procs for 300000 steps with 1000 atoms

# run_style
run_style verlet

# write restart
write_restart ./pgnpmf/37/equpmf73.res
System init for write_restart ...
Generated 0 of 1 mixed pair_coeff terms from geometric mixing rule
