LAMMPS (23 Jun 2022 - Update 1)
# Read restart
read_restart ./pgnpmf/37/equpmf40.res
Reading restart file ...
  restart file = 23 Jun 2022, LAMMPS = 23 Jun 2022
  restoring atom style atomic from restart
  orthogonal box = (2024.8597 2024.8597 2024.8597) to (2975.1403 2975.1403 2975.1403)
  restoring pair style table from restart
  1000 atoms
  read_restart CPU = 0.003 seconds

# Settings

pair_style table spline 9941

pair_coeff 1 1 ./pgnpmf/N20.txt DE_GNP 75.6
pair_coeff 2 2 ./pgnpmf/N100.txt DE_GNP 115.92
pair_coeff 1 2 ./pgnpmf/mixed_potential.txt DE_GNP 95.66

#Neigh_list Calc Frequency

neigh_modify delay 0 every 1 check yes

# Saving Frequency (50 frames)

variable ts_save equal 5000

# Dump
#dump_modify 1 first no sort id
#dump 2 all cfg 50000 ./equilibration/trajectory/ovito/dumpgen.tens_*.cfg mass type xs ys zs fx fy fz

# thermo_style
thermo_style custom step temp press pe density ke etotal lx ly lz xlo xhi ylo yhi zlo zhi vol dt time cpu tpcpu spcpu cpuremain

# run info
timestep 0.1
thermo 200

# fix

fix 1 all momentum 1000 linear 1 1 1 angular
variable T equal 300
fix 2 all nvt temp 300 370000 100.0

run 100000
Generated 0 of 1 mixed pair_coeff terms from geometric mixing rule
Unused restart file global fix info:
  fix style: npt, fix ID: 5
  update every 1 steps, delay 0 steps, check yes
Step          Temp          Press          PotEng        Density         KinEng         TotEng           Lx             Ly             Lz            Xlo            Xhi            Ylo            Yhi            Zlo            Zhi           Volume           Dt            Time           CPU           T/CPU          S/CPU         CPULeft
28005000   307.70967      1.2090111     -36162292       0.70047286     916.30686     -36161376       950.28055      950.28055      950.28055      2024.8597      2975.1403      2024.8597      2975.1403      2024.8597      2975.1403      8.5813481e+08  0.1            13725000       0              0              0              0
Averages over the last 251 of 501 rows, steps 28055000 to 28105000:
Temp Press PotEng Density KinEng TotEng Lx Ly Lz Xlo Xhi Ylo Yhi Zlo Zhi Volume Dt
276719 49.9603 -3.614e+07 0.700473 824023 -3.53159e+07 950.281 950.281 950.281 2024.86 2975.14 2024.86 2975.14 2024.86 2975.14 8.58135e+08 0.1
Loop time of 16.0195 on 1 procs for 100000 steps with 1000 atoms

unfix 2

fix 3 all nvt temp 370000 370000 $(100.0*dt) #iso 1.0 1.0 $(1000.0*dt)
fix 3 all nvt temp 370000 370000 10

run 200000
Generated 0 of 1 mixed pair_coeff terms from geometric mixing rule
Step          Temp          Press          PotEng        Density         KinEng         TotEng           Lx             Ly             Lz            Xlo            Xhi            Ylo            Yhi            Zlo            Zhi           Volume           Dt            Time           CPU           T/CPU          S/CPU         CPULeft
28105000   373072.1       229.24343     -36054012       0.70047286     1110945       -34943067       950.28055      950.28055      950.28055      2024.8597      2975.1403      2024.8597      2975.1403      2024.8597      2975.1403      8.5813481e+08  0.1            13735000       0              0              0              0
Averages over the last 501 of 1001 rows, steps 28205000 to 28305000:
Temp Press PotEng Density KinEng TotEng Lx Ly Lz Xlo Xhi Ylo Yhi Zlo Zhi Volume Dt
370037 61.2928 -3.54414e+07 0.700473 1.10191e+06 -3.43395e+07 950.281 950.281 950.281 2024.86 2975.14 2024.86 2975.14 2024.86 2975.14 8.58135e+08 0.1
Loop time of 32.6682 on 1 procs for 200000 steps with 1000 atoms

unfix 3

fix 4 all nvt temp 370000 300 100.0

run 100000
Generated 0 of 1 mixed pair_coeff terms from geometric mixing rule
Step          Temp          Press          PotEng        Density         KinEng         TotEng           Lx             Ly             Lz            Xlo            Xhi            Ylo            Yhi            Zlo            Zhi           Volume           Dt            Time           CPU           T/CPU          S/CPU         CPULeft
28305000   375944.39     -20.362831     -35133615       0.70047286     1119498.2     -34014117       950.28055      950.28055      950.28055      2024.8597      2975.1403      2024.8597      2975.1403      2024.8597      2975.1403      8.5813481e+08  0.1            13755000       0              0              0              0
Averages over the last 251 of 501 rows, steps 28355000 to 28405000:
Temp Press PotEng Density KinEng TotEng Lx Ly Lz Xlo Xhi Ylo Yhi Zlo Zhi Volume Dt
95414.9 -297.861 -3.52519e+07 0.700473 284129 -3.49677e+07 950.281 950.281 950.281 2024.86 2975.14 2024.86 2975.14 2024.86 2975.14 8.58135e+08 0.1
Loop time of 16.1224 on 1 procs for 100000 steps with 1000 atoms

unfix 4

fix 5 all npt temp 300 300 $(100.0*dt) iso 1.0 1.0 $(1000.0*dt)
fix 5 all npt temp 300 300 10 iso 1.0 1.0 $(1000.0*dt)
fix 5 all npt temp 300 300 10 iso 1.0 1.0 100

run 300000
Generated 0 of 1 mixed pair_coeff terms from geometric mixing rule
Step          Temp          Press          PotEng        Density         KinEng         TotEng           Lx             Ly             Lz            Xlo            Xhi            Ylo            Yhi            Zlo            Zhi           Volume           Dt            Time           CPU           T/CPU          S/CPU         CPULeft
28405000   5039.1957     -421.4466      -35384510       0.70047286     15005.864     -35369504       950.28055      950.28055      950.28055      2024.8597      2975.1403      2024.8597      2975.1403      2024.8597      2975.1403      8.5813481e+08  0.1            13765000       0              0              0              0
Averages over the last 751 of 1501 rows, steps 28555000 to 28705000:
Temp Press PotEng Density KinEng TotEng Lx Ly Lz Xlo Xhi Ylo Yhi Zlo Zhi Volume Dt
311.011 0.921804 -3.61524e+07 0.732033 926.136 -3.61515e+07 936.424 936.424 936.424 2031.79 2968.21 2031.79 2968.21 2031.79 2968.21 8.21142e+08 0.1
Loop time of 56.7947 on 1 procs for 300000 steps with 1000 atoms

# run_style
run_style verlet

# write restart
write_restart ./pgnpmf/37/equpmf41.res
System init for write_restart ...
Generated 0 of 1 mixed pair_coeff terms from geometric mixing rule
