LAMMPS (23 Jun 2022 - Update 1)
# Read restart
read_restart ./pgnpmf/37/equpmf34.res
Reading restart file ...
  restart file = 23 Jun 2022, LAMMPS = 23 Jun 2022
  restoring atom style atomic from restart
  orthogonal box = (1992.1416 1992.1416 1992.1416) to (3007.8584 3007.8584 3007.8584)
  restoring pair style table from restart
  1000 atoms
  read_restart CPU = 0.016 seconds

# Settings

pair_style table spline 9941

pair_coeff 1 1 ./pgnpmf/N20.txt DE_GNP 75.6
pair_coeff 2 2 ./pgnpmf/N100.txt DE_GNP 115.92
pair_coeff 1 2 ./pgnpmf/mixed_potential.txt DE_GNP 95.66

#Neigh_list Calc Frequency

neigh_modify delay 0 every 1 check yes

# Saving Frequency (50 frames)

variable ts_save equal 5000

# Dump
#dump_modify 1 first no sort id
#dump 2 all cfg 50000 ./equilibration/trajectory/ovito/dumpgen.tens_*.cfg mass type xs ys zs fx fy fz

# thermo_style
thermo_style custom step temp press pe density ke etotal lx ly lz xlo xhi ylo yhi zlo zhi vol dt time cpu tpcpu spcpu cpuremain

# run info
timestep 0.5
thermo 200

# fix

fix 1 all momentum 1000 linear 1 1 1 angular
variable T equal 300
fix 2 all nvt temp 300 370000 100.0

run 100000
Generated 0 of 1 mixed pair_coeff terms from geometric mixing rule
Unused restart file global fix info:
  fix style: npt, fix ID: 5
  update every 1 steps, delay 0 steps, check yes
Step          Temp          Press          PotEng        Density         KinEng         TotEng           Lx             Ly             Lz            Xlo            Xhi            Ylo            Yhi            Zlo            Zhi           Volume           Dt            Time           CPU           T/CPU          S/CPU         CPULeft
23805000   306.33227      2.5337428     -35463506       0.57362611     912.20518     -35462594       1015.7168      1015.7168      1015.7168      1992.1416      3007.8584      1992.1416      3007.8584      1992.1416      3007.8584      1.0478954e+09  0.5            11905000       0              0              0              0
Averages over the last 251 of 501 rows, steps 23855000 to 23905000:
Temp Press PotEng Density KinEng TotEng Lx Ly Lz Xlo Xhi Ylo Yhi Zlo Zhi Volume Dt
277045 42.1552 -3.49195e+07 0.573626 824993 -3.40945e+07 1015.72 1015.72 1015.72 1992.14 3007.86 1992.14 3007.86 1992.14 3007.86 1.0479e+09 0.5
Loop time of 9.76716 on 4 procs for 100000 steps with 1000 atoms

unfix 2

fix 3 all nvt temp 370000 370000 $(100.0*dt) #iso 1.0 1.0 $(1000.0*dt)
fix 3 all nvt temp 370000 370000 50

run 200000
Generated 0 of 1 mixed pair_coeff terms from geometric mixing rule
Step          Temp          Press          PotEng        Density         KinEng         TotEng           Lx             Ly             Lz            Xlo            Xhi            Ylo            Yhi            Zlo            Zhi           Volume           Dt            Time           CPU           T/CPU          S/CPU         CPULeft
23905000   369424.85      3.8355796     -34451678       0.57362611     1100084.1     -33351593       1015.7168      1015.7168      1015.7168      1992.1416      3007.8584      1992.1416      3007.8584      1992.1416      3007.8584      1.0478954e+09  0.5            11955000       0              0              0              0
Averages over the last 501 of 1001 rows, steps 24005000 to 24105000:
Temp Press PotEng Density KinEng TotEng Lx Ly Lz Xlo Xhi Ylo Yhi Zlo Zhi Volume Dt
369890 15.3692 -3.35436e+07 0.573626 1.10147e+06 -3.24421e+07 1015.72 1015.72 1015.72 1992.14 3007.86 1992.14 3007.86 1992.14 3007.86 1.0479e+09 0.5
Loop time of 19.4826 on 4 procs for 200000 steps with 1000 atoms

unfix 3

fix 4 all nvt temp 370000 300 100.0

run 100000
Generated 0 of 1 mixed pair_coeff terms from geometric mixing rule
Step          Temp          Press          PotEng        Density         KinEng         TotEng           Lx             Ly             Lz            Xlo            Xhi            Ylo            Yhi            Zlo            Zhi           Volume           Dt            Time           CPU           T/CPU          S/CPU         CPULeft
24105000   359750.38      4.8350844     -33532159       0.57362611     1071275.2     -32460884       1015.7168      1015.7168      1015.7168      1992.1416      3007.8584      1992.1416      3007.8584      1992.1416      3007.8584      1.0478954e+09  0.5            12055000       0              0              0              0
Averages over the last 251 of 501 rows, steps 24155000 to 24205000:
Temp Press PotEng Density KinEng TotEng Lx Ly Lz Xlo Xhi Ylo Yhi Zlo Zhi Volume Dt
93029.3 -102.113 -3.46042e+07 0.573626 277025 -3.43272e+07 1015.72 1015.72 1015.72 1992.14 3007.86 1992.14 3007.86 1992.14 3007.86 1.0479e+09 0.5
Loop time of 9.70778 on 4 procs for 100000 steps with 1000 atoms

unfix 4

fix 5 all npt temp 300 300 $(100.0*dt) iso 1.0 1.0 $(1000.0*dt)
fix 5 all npt temp 300 300 50 iso 1.0 1.0 $(1000.0*dt)
fix 5 all npt temp 300 300 50 iso 1.0 1.0 500

run 300000
Generated 0 of 1 mixed pair_coeff terms from geometric mixing rule
Step          Temp          Press          PotEng        Density         KinEng         TotEng           Lx             Ly             Lz            Xlo            Xhi            Ylo            Yhi            Zlo            Zhi           Volume           Dt            Time           CPU           T/CPU          S/CPU         CPULeft
24205000   1359.0425     -122.42667     -35077667       0.57362611     4046.9965     -35073620       1015.7168      1015.7168      1015.7168      1992.1416      3007.8584      1992.1416      3007.8584      1992.1416      3007.8584      1.0478954e+09  0.5            12105000       0              0              0              0
Averages over the last 751 of 1501 rows, steps 24355000 to 24505000:
Temp Press PotEng Density KinEng TotEng Lx Ly Lz Xlo Xhi Ylo Yhi Zlo Zhi Volume Dt
308.218 1.03275 -3.55679e+07 0.588382 917.822 -3.5567e+07 1007.16 1007.16 1007.16 1996.42 3003.58 1996.42 3003.58 1996.42 3003.58 1.02162e+09 0.5
Loop time of 36.9524 on 4 procs for 300000 steps with 1000 atoms

# run_style
run_style verlet

# write restart
write_restart ./pgnpmf/37/equpmf35.res
System init for write_restart ...
Generated 0 of 1 mixed pair_coeff terms from geometric mixing rule
