LAMMPS (23 Jun 2022 - Update 1)
# Read restart
read_restart ./pgnpmf/37/equpmf45.res
Reading restart file ...
  restart file = 23 Jun 2022, LAMMPS = 23 Jun 2022
  restoring atom style atomic from restart
  orthogonal box = (2063.9529 2063.9529 2063.9529) to (2936.0471 2936.0471 2936.0471)
  restoring pair style table from restart
  1000 atoms
  read_restart CPU = 0.004 seconds

# Settings

pair_style table spline 9941

pair_coeff 1 1 ./pgnpmf/N20.txt DE_GNP 75.6
pair_coeff 2 2 ./pgnpmf/N100.txt DE_GNP 115.92
pair_coeff 1 2 ./pgnpmf/mixed_potential.txt DE_GNP 95.66

#Neigh_list Calc Frequency

neigh_modify delay 0 every 1 check yes

# Saving Frequency (50 frames)

variable ts_save equal 5000

# Dump
#dump_modify 1 first no sort id
#dump 2 all cfg 50000 ./equilibration/trajectory/ovito/dumpgen.tens_*.cfg mass type xs ys zs fx fy fz

# thermo_style
thermo_style custom step temp press pe density ke etotal lx ly lz xlo xhi ylo yhi zlo zhi vol dt time cpu tpcpu spcpu cpuremain

# run info
timestep 0.1
thermo 200

# fix

fix 1 all momentum 1000 linear 1 1 1 angular
variable T equal 300
fix 2 all nvt temp 300 370000 100.0

run 100000
Generated 0 of 1 mixed pair_coeff terms from geometric mixing rule
Unused restart file global fix info:
  fix style: npt, fix ID: 5
  update every 1 steps, delay 0 steps, check yes
Step          Temp          Press          PotEng        Density         KinEng         TotEng           Lx             Ly             Lz            Xlo            Xhi            Ylo            Yhi            Zlo            Zhi           Volume           Dt            Time           CPU           T/CPU          S/CPU         CPULeft
31505000   309.49896      0.0018703981  -37292261       0.90626792     921.63506     -37291339       872.09422      872.09422      872.09422      2063.9529      2936.0471      2063.9529      2936.0471      2063.9529      2936.0471      6.6326981e+08  0.1            14075000       0              0              0              0
Averages over the last 251 of 501 rows, steps 31555000 to 31605000:
Temp Press PotEng Density KinEng TotEng Lx Ly Lz Xlo Xhi Ylo Yhi Zlo Zhi Volume Dt
277306 82.2728 -3.74865e+07 0.906268 825770 -3.66607e+07 872.094 872.094 872.094 2063.95 2936.05 2063.95 2936.05 2063.95 2936.05 6.6327e+08 0.1
Loop time of 17.0141 on 1 procs for 100000 steps with 1000 atoms

unfix 2

fix 3 all nvt temp 370000 370000 $(100.0*dt) #iso 1.0 1.0 $(1000.0*dt)
fix 3 all nvt temp 370000 370000 10

run 200000
Generated 0 of 1 mixed pair_coeff terms from geometric mixing rule
Step          Temp          Press          PotEng        Density         KinEng         TotEng           Lx             Ly             Lz            Xlo            Xhi            Ylo            Yhi            Zlo            Zhi           Volume           Dt            Time           CPU           T/CPU          S/CPU         CPULeft
31605000   378591.64      397.50849     -37412553       0.90626792     1127381.2     -36285172       872.09422      872.09422      872.09422      2063.9529      2936.0471      2063.9529      2936.0471      2063.9529      2936.0471      6.6326981e+08  0.1            14085000       0              0              0              0
Averages over the last 501 of 1001 rows, steps 31705000 to 31805000:
Temp Press PotEng Density KinEng TotEng Lx Ly Lz Xlo Xhi Ylo Yhi Zlo Zhi Volume Dt
369682 218.036 -3.70155e+07 0.906268 1.10085e+06 -3.59147e+07 872.094 872.094 872.094 2063.95 2936.05 2063.95 2936.05 2063.95 2936.05 6.6327e+08 0.1
Loop time of 34.5016 on 1 procs for 200000 steps with 1000 atoms

unfix 3

fix 4 all nvt temp 370000 300 100.0

run 100000
Generated 0 of 1 mixed pair_coeff terms from geometric mixing rule
Step          Temp          Press          PotEng        Density         KinEng         TotEng           Lx             Ly             Lz            Xlo            Xhi            Ylo            Yhi            Zlo            Zhi           Volume           Dt            Time           CPU           T/CPU          S/CPU         CPULeft
31805000   375237.97      14.766505     -36836821       0.90626792     1117394.6     -35719427       872.09422      872.09422      872.09422      2063.9529      2936.0471      2063.9529      2936.0471      2063.9529      2936.0471      6.6326981e+08  0.1            14105000       0              0              0              0
Averages over the last 251 of 501 rows, steps 31855000 to 31905000:
Temp Press PotEng Density KinEng TotEng Lx Ly Lz Xlo Xhi Ylo Yhi Zlo Zhi Volume Dt
95345.7 -459.707 -3.68228e+07 0.906268 283923 -3.65389e+07 872.094 872.094 872.094 2063.95 2936.05 2063.95 2936.05 2063.95 2936.05 6.6327e+08 0.1
Loop time of 17.0413 on 1 procs for 100000 steps with 1000 atoms

unfix 4

fix 5 all npt temp 300 300 $(100.0*dt) iso 1.0 1.0 $(1000.0*dt)
fix 5 all npt temp 300 300 10 iso 1.0 1.0 $(1000.0*dt)
fix 5 all npt temp 300 300 10 iso 1.0 1.0 100

run 300000
Generated 0 of 1 mixed pair_coeff terms from geometric mixing rule
Step          Temp          Press          PotEng        Density         KinEng         TotEng           Lx             Ly             Lz            Xlo            Xhi            Ylo            Yhi            Zlo            Zhi           Volume           Dt            Time           CPU           T/CPU          S/CPU         CPULeft
31905000   5030.7688     -630.83677     -36904712       0.90626792     14980.77      -36889732       872.09422      872.09422      872.09422      2063.9529      2936.0471      2063.9529      2936.0471      2063.9529      2936.0471      6.6326981e+08  0.1            14115000       0              0              0              0
Averages over the last 751 of 1501 rows, steps 32055000 to 32205000:
Temp Press PotEng Density KinEng TotEng Lx Ly Lz Xlo Xhi Ylo Yhi Zlo Zhi Volume Dt
311.397 0.905305 -3.78313e+07 0.950518 927.286 -3.78303e+07 858.346 858.346 858.346 2070.83 2929.17 2070.83 2929.17 2070.83 2929.17 6.32395e+08 0.1
Loop time of 60.0339 on 1 procs for 300000 steps with 1000 atoms

# run_style
run_style verlet

# write restart
write_restart ./pgnpmf/37/equpmf46.res
System init for write_restart ...
Generated 0 of 1 mixed pair_coeff terms from geometric mixing rule
