LAMMPS (23 Jun 2022 - Update 1)
# Read restart
read_restart ./pgnpmf/37/equpmf64.res
Reading restart file ...
  restart file = 23 Jun 2022, LAMMPS = 23 Jun 2022
  restoring atom style atomic from restart
  orthogonal box = (2139.3422 2139.3422 2139.3422) to (2860.6578 2860.6578 2860.6578)
  restoring pair style table from restart
  1000 atoms
  read_restart CPU = 0.003 seconds

# Settings

pair_style table spline 9941

pair_coeff 1 1 ./pgnpmf/N20.txt DE_GNP 75.6
pair_coeff 2 2 ./pgnpmf/N100.txt DE_GNP 115.92
pair_coeff 1 2 ./pgnpmf/mixed_potential.txt DE_GNP 95.66

#Neigh_list Calc Frequency

neigh_modify delay 0 every 1 check yes

# Saving Frequency (50 frames)

variable ts_save equal 5000

# Dump
#dump_modify 1 first no sort id
#dump 2 all cfg 50000 ./equilibration/trajectory/ovito/dumpgen.tens_*.cfg mass type xs ys zs fx fy fz

# thermo_style
thermo_style custom step temp press pe density ke etotal lx ly lz xlo xhi ylo yhi zlo zhi vol dt time cpu tpcpu spcpu cpuremain

# run info
timestep 0.1
thermo 200

# fix

fix 1 all momentum 1000 linear 1 1 1 angular
variable T equal 300
fix 2 all nvt temp 300 370000 100.0

run 100000
Generated 0 of 1 mixed pair_coeff terms from geometric mixing rule
Unused restart file global fix info:
  fix style: npt, fix ID: 5
  update every 1 steps, delay 0 steps, check yes
Step          Temp          Press          PotEng        Density         KinEng         TotEng           Lx             Ly             Lz            Xlo            Xhi            Ylo            Yhi            Zlo            Zhi           Volume           Dt            Time           CPU           T/CPU          S/CPU         CPULeft
44805000   305.93088      5.0816743     -42631280       1.6016618      911.00993     -42630369       721.31562      721.31562      721.31562      2139.3422      2860.6578      2139.3422      2860.6578      2139.3422      2860.6578      3.7529779e+08  0.1            15405000       0              0              0              0
Averages over the last 251 of 501 rows, steps 44855000 to 44905000:
Temp Press PotEng Density KinEng TotEng Lx Ly Lz Xlo Xhi Ylo Yhi Zlo Zhi Volume Dt
277169 609.347 -4.25863e+07 1.60166 825363 -4.1761e+07 721.316 721.316 721.316 2139.34 2860.66 2139.34 2860.66 2139.34 2860.66 3.75298e+08 0.1
Loop time of 20.0687 on 1 procs for 100000 steps with 1000 atoms

unfix 2

fix 3 all nvt temp 370000 370000 $(100.0*dt) #iso 1.0 1.0 $(1000.0*dt)
fix 3 all nvt temp 370000 370000 10

run 200000
Generated 0 of 1 mixed pair_coeff terms from geometric mixing rule
Step          Temp          Press          PotEng        Density         KinEng         TotEng           Lx             Ly             Lz            Xlo            Xhi            Ylo            Yhi            Zlo            Zhi           Volume           Dt            Time           CPU           T/CPU          S/CPU         CPULeft
44905000   377542.26      1125.8873     -42488128       1.6016618      1124256.4     -41363872       721.31562      721.31562      721.31562      2139.3422      2860.6578      2139.3422      2860.6578      2139.3422      2860.6578      3.7529779e+08  0.1            15415000       0              0              0              0
Averages over the last 501 of 1001 rows, steps 45005000 to 45105000:
Temp Press PotEng Density KinEng TotEng Lx Ly Lz Xlo Xhi Ylo Yhi Zlo Zhi Volume Dt
369597 1478.38 -4.19781e+07 1.60166 1.1006e+06 -4.08775e+07 721.316 721.316 721.316 2139.34 2860.66 2139.34 2860.66 2139.34 2860.66 3.75298e+08 0.1
Loop time of 40.9443 on 1 procs for 200000 steps with 1000 atoms

unfix 3

fix 4 all nvt temp 370000 300 100.0

run 100000
Generated 0 of 1 mixed pair_coeff terms from geometric mixing rule
Step          Temp          Press          PotEng        Density         KinEng         TotEng           Lx             Ly             Lz            Xlo            Xhi            Ylo            Yhi            Zlo            Zhi           Volume           Dt            Time           CPU           T/CPU          S/CPU         CPULeft
45105000   365780.65      1326.06       -41851095       1.6016618      1089232.3     -40761863       721.31562      721.31562      721.31562      2139.3422      2860.6578      2139.3422      2860.6578      2139.3422      2860.6578      3.7529779e+08  0.1            15435000       0              0              0              0
Averages over the last 251 of 501 rows, steps 45155000 to 45205000:
Temp Press PotEng Density KinEng TotEng Lx Ly Lz Xlo Xhi Ylo Yhi Zlo Zhi Volume Dt
96466.6 234.098 -4.23653e+07 1.60166 287261 -4.2078e+07 721.316 721.316 721.316 2139.34 2860.66 2139.34 2860.66 2139.34 2860.66 3.75298e+08 0.1
Loop time of 20.3025 on 1 procs for 100000 steps with 1000 atoms

unfix 4

fix 5 all npt temp 300 300 $(100.0*dt) iso 1.0 1.0 $(1000.0*dt)
fix 5 all npt temp 300 300 10 iso 1.0 1.0 $(1000.0*dt)
fix 5 all npt temp 300 300 10 iso 1.0 1.0 100

run 300000
Generated 0 of 1 mixed pair_coeff terms from geometric mixing rule
Step          Temp          Press          PotEng        Density         KinEng         TotEng           Lx             Ly             Lz            Xlo            Xhi            Ylo            Yhi            Zlo            Zhi           Volume           Dt            Time           CPU           T/CPU          S/CPU         CPULeft
45205000   5126.5359     -152.1298      -42540603       1.6016618      15265.949     -42525337       721.31562      721.31562      721.31562      2139.3422      2860.6578      2139.3422      2860.6578      2139.3422      2860.6578      3.7529779e+08  0.1            15445000       0              0              0              0
Averages over the last 751 of 1501 rows, steps 45355000 to 45505000:
Temp Press PotEng Density KinEng TotEng Lx Ly Lz Xlo Xhi Ylo Yhi Zlo Zhi Volume Dt
306.515 0.902393 -4.27704e+07 1.61588 912.749 -4.27695e+07 719.194 719.194 719.194 2140.4 2859.6 2140.4 2859.6 2140.4 2859.6 3.71996e+08 0.1
Loop time of 69.204 on 1 procs for 300000 steps with 1000 atoms

# run_style
run_style verlet

# write restart
write_restart ./pgnpmf/37/equpmf65.res
System init for write_restart ...
Generated 0 of 1 mixed pair_coeff terms from geometric mixing rule
