LAMMPS (23 Jun 2022 - Update 1)
# Read restart
read_restart ./pgnpmf/37/equpmf5.res
Reading restart file ...
  restart file = 23 Jun 2022, LAMMPS = 23 Jun 2022
  restoring atom style atomic from restart
  orthogonal box = (1666.6964 1666.6964 1666.6964) to (3333.3036 3333.3036 3333.3036)
  restoring pair style table from restart
  1000 atoms
  read_restart CPU = 0.016 seconds

# Settings

pair_style table spline 9941

pair_coeff 1 1 ./pgnpmf/N20.txt DE_GNP 75.6
pair_coeff 2 2 ./pgnpmf/N100.txt DE_GNP 115.92
pair_coeff 1 2 ./pgnpmf/mixed_potential.txt DE_GNP 95.66

#Neigh_list Calc Frequency

neigh_modify delay 0 every 1 check yes

# Saving Frequency (50 frames)

variable ts_save equal 5000

# Dump
#dump_modify 1 first no sort id
#dump 2 all cfg 50000 ./equilibration/trajectory/ovito/dumpgen.tens_*.cfg mass type xs ys zs fx fy fz

# thermo_style
thermo_style custom step temp press pe density ke etotal lx ly lz xlo xhi ylo yhi zlo zhi vol dt time cpu tpcpu spcpu cpuremain

# run info
timestep 0.5
thermo 200

# fix

fix 1 all momentum 1000 linear 1 1 1 angular
variable T equal 300
fix 2 all nvt temp 300 370000 100.0

run 100000
Generated 0 of 1 mixed pair_coeff terms from geometric mixing rule
Unused restart file global fix info:
  fix style: npt, fix ID: 5
  update every 1 steps, delay 0 steps, check yes
Step          Temp          Press          PotEng        Density         KinEng         TotEng           Lx             Ly             Lz            Xlo            Xhi            Ylo            Yhi            Zlo            Zhi           Volume           Dt            Time           CPU           T/CPU          S/CPU         CPULeft
3505000   311.97383      1.0507785     -7929538.4      0.12985155     929.0048      -7928609.4      1666.6071      1666.6071      1666.6071      1666.6964      3333.3036      1666.6964      3333.3036      1666.6964      3333.3036      4.6291335e+09  0.5            1755000        0              0              0              0
Averages over the last 251 of 501 rows, steps 3555000 to 3605000:
Temp Press PotEng Density KinEng TotEng Lx Ly Lz Xlo Xhi Ylo Yhi Zlo Zhi Volume Dt
277547 4.05748 -7.92315e+06 0.129852 826488 -7.09666e+06 1666.61 1666.61 1666.61 1666.7 3333.3 1666.7 3333.3 1666.7 3333.3 4.62913e+09 0.5
Loop time of 4.92425 on 4 procs for 100000 steps with 1000 atoms

unfix 2

fix 3 all nvt temp 370000 370000 $(100.0*dt) #iso 1.0 1.0 $(1000.0*dt)
fix 3 all nvt temp 370000 370000 50

run 200000
Generated 0 of 1 mixed pair_coeff terms from geometric mixing rule
Step          Temp          Press          PotEng        Density         KinEng         TotEng           Lx             Ly             Lz            Xlo            Xhi            Ylo            Yhi            Zlo            Zhi           Volume           Dt            Time           CPU           T/CPU          S/CPU         CPULeft
3605000   371596.23      1.369904      -7812121.6      0.12985155     1106550.1     -6705571.5      1666.6071      1666.6071      1666.6071      1666.6964      3333.3036      1666.6964      3333.3036      1666.6964      3333.3036      4.6291335e+09  0.5            1805000        0              0              0              0
Averages over the last 501 of 1001 rows, steps 3705000 to 3805000:
Temp Press PotEng Density KinEng TotEng Lx Ly Lz Xlo Xhi Ylo Yhi Zlo Zhi Volume Dt
369908 5.81359 -7.83995e+06 0.129852 1.10152e+06 -6.73843e+06 1666.61 1666.61 1666.61 1666.7 3333.3 1666.7 3333.3 1666.7 3333.3 4.62913e+09 0.5
Loop time of 9.90744 on 4 procs for 200000 steps with 1000 atoms

unfix 3

fix 4 all nvt temp 370000 300 100.0

run 100000
Generated 0 of 1 mixed pair_coeff terms from geometric mixing rule
Step          Temp          Press          PotEng        Density         KinEng         TotEng           Lx             Ly             Lz            Xlo            Xhi            Ylo            Yhi            Zlo            Zhi           Volume           Dt            Time           CPU           T/CPU          S/CPU         CPULeft
3805000   370459.77      7.5328423     -7951818        0.12985155     1103165.9     -6848652.1      1666.6071      1666.6071      1666.6071      1666.6964      3333.3036      1666.6964      3333.3036      1666.6964      3333.3036      4.6291335e+09  0.5            1905000        0              0              0              0
Averages over the last 251 of 501 rows, steps 3855000 to 3905000:
Temp Press PotEng Density KinEng TotEng Lx Ly Lz Xlo Xhi Ylo Yhi Zlo Zhi Volume Dt
92992.2 -8.01527 -8.80928e+06 0.129852 276915 -8.53236e+06 1666.61 1666.61 1666.61 1666.7 3333.3 1666.7 3333.3 1666.7 3333.3 4.62913e+09 0.5
Loop time of 4.90623 on 4 procs for 100000 steps with 1000 atoms

unfix 4

fix 5 all npt temp 300 300 $(100.0*dt) iso 1.0 1.0 $(1000.0*dt)
fix 5 all npt temp 300 300 50 iso 1.0 1.0 $(1000.0*dt)
fix 5 all npt temp 300 300 50 iso 1.0 1.0 500

run 300000
Generated 0 of 1 mixed pair_coeff terms from geometric mixing rule
Step          Temp          Press          PotEng        Density         KinEng         TotEng           Lx             Ly             Lz            Xlo            Xhi            Ylo            Yhi            Zlo            Zhi           Volume           Dt            Time           CPU           T/CPU          S/CPU         CPULeft
3905000   1358.1879     -13.96946      -9229474.9      0.12985155     4044.4517     -9225430.4      1666.6071      1666.6071      1666.6071      1666.6964      3333.3036      1666.6964      3333.3036      1666.6964      3333.3036      4.6291335e+09  0.5            1955000        0              0              0              0
Averages over the last 751 of 1501 rows, steps 4055000 to 4205000:
Temp Press PotEng Density KinEng TotEng Lx Ly Lz Xlo Xhi Ylo Yhi Zlo Zhi Volume Dt
315.173 1.00189 -9.98162e+06 0.151351 938.531 -9.98068e+06 1583.77 1583.77 1583.77 1708.11 3291.89 1708.11 3291.89 1708.11 3291.89 3.97316e+09 0.5
Loop time of 21.2444 on 4 procs for 300000 steps with 1000 atoms

# run_style
run_style verlet

# write restart
write_restart ./pgnpmf/37/equpmf6.res
System init for write_restart ...
Generated 0 of 1 mixed pair_coeff terms from geometric mixing rule
