LAMMPS (23 Jun 2022 - Update 1)
# Read restart
read_restart ./pgnpmf/37/equpmf25.res
Reading restart file ...
  restart file = 23 Jun 2022, LAMMPS = 23 Jun 2022
  restoring atom style atomic from restart
  orthogonal box = (1953.6914 1953.6914 1953.6914) to (3046.3086 3046.3086 3046.3086)
  restoring pair style table from restart
  1000 atoms
  read_restart CPU = 0.016 seconds

# Settings

pair_style table spline 9941

pair_coeff 1 1 ./pgnpmf/N20.txt DE_GNP 75.6
pair_coeff 2 2 ./pgnpmf/N100.txt DE_GNP 115.92
pair_coeff 1 2 ./pgnpmf/mixed_potential.txt DE_GNP 95.66

#Neigh_list Calc Frequency

neigh_modify delay 0 every 1 check yes

# Saving Frequency (50 frames)

variable ts_save equal 5000

# Dump
#dump_modify 1 first no sort id
#dump 2 all cfg 50000 ./equilibration/trajectory/ovito/dumpgen.tens_*.cfg mass type xs ys zs fx fy fz

# thermo_style
thermo_style custom step temp press pe density ke etotal lx ly lz xlo xhi ylo yhi zlo zhi vol dt time cpu tpcpu spcpu cpuremain

# run info
timestep 0.5
thermo 200

# fix

fix 1 all momentum 1000 linear 1 1 1 angular
variable T equal 300
fix 2 all nvt temp 300 370000 100.0

run 100000
Generated 0 of 1 mixed pair_coeff terms from geometric mixing rule
Unused restart file global fix info:
  fix style: npt, fix ID: 5
  update every 1 steps, delay 0 steps, check yes
Step          Temp          Press          PotEng        Density         KinEng         TotEng           Lx             Ly             Lz            Xlo            Xhi            Ylo            Yhi            Zlo            Zhi           Volume           Dt            Time           CPU           T/CPU          S/CPU         CPULeft
17505000   305.12925      1.742063      -34290862       0.46083201     908.62282     -34289954       1092.6173      1092.6173      1092.6173      1953.6914      3046.3086      1953.6914      3046.3086      1953.6914      3046.3086      1.3043802e+09  0.5            8755000        0              0              0              0
Averages over the last 251 of 501 rows, steps 17555000 to 17605000:
Temp Press PotEng Density KinEng TotEng Lx Ly Lz Xlo Xhi Ylo Yhi Zlo Zhi Volume Dt
277524 49.2586 -3.36598e+07 0.460832 826419 -3.28333e+07 1092.62 1092.62 1092.62 1953.69 3046.31 1953.69 3046.31 1953.69 3046.31 1.30438e+09 0.5
Loop time of 9.64951 on 4 procs for 100000 steps with 1000 atoms

unfix 2

fix 3 all nvt temp 370000 370000 $(100.0*dt) #iso 1.0 1.0 $(1000.0*dt)
fix 3 all nvt temp 370000 370000 50

run 200000
Generated 0 of 1 mixed pair_coeff terms from geometric mixing rule
Step          Temp          Press          PotEng        Density         KinEng         TotEng           Lx             Ly             Lz            Xlo            Xhi            Ylo            Yhi            Zlo            Zhi           Volume           Dt            Time           CPU           T/CPU          S/CPU         CPULeft
17605000   373021.58     -4.1344948     -33055121       0.46083201     1110794.6     -31944327       1092.6173      1092.6173      1092.6173      1953.6914      3046.3086      1953.6914      3046.3086      1953.6914      3046.3086      1.3043802e+09  0.5            8805000        0              0              0              0
Averages over the last 501 of 1001 rows, steps 17705000 to 17805000:
Temp Press PotEng Density KinEng TotEng Lx Ly Lz Xlo Xhi Ylo Yhi Zlo Zhi Volume Dt
370436 13.9559 -3.18428e+07 0.460832 1.10309e+06 -3.07397e+07 1092.62 1092.62 1092.62 1953.69 3046.31 1953.69 3046.31 1953.69 3046.31 1.30438e+09 0.5
Loop time of 18.8291 on 4 procs for 200000 steps with 1000 atoms

unfix 3

fix 4 all nvt temp 370000 300 100.0

run 100000
Generated 0 of 1 mixed pair_coeff terms from geometric mixing rule
Step          Temp          Press          PotEng        Density         KinEng         TotEng           Lx             Ly             Lz            Xlo            Xhi            Ylo            Yhi            Zlo            Zhi           Volume           Dt            Time           CPU           T/CPU          S/CPU         CPULeft
17805000   377298.52      11.845173     -31821732       0.46083201     1123530.6     -30698201       1092.6173      1092.6173      1092.6173      1953.6914      3046.3086      1953.6914      3046.3086      1953.6914      3046.3086      1.3043802e+09  0.5            8905000        0              0              0              0
Averages over the last 251 of 501 rows, steps 17855000 to 17905000:
Temp Press PotEng Density KinEng TotEng Lx Ly Lz Xlo Xhi Ylo Yhi Zlo Zhi Volume Dt
93149.8 -66.4888 -3.30923e+07 0.460832 277384 -3.28149e+07 1092.62 1092.62 1092.62 1953.69 3046.31 1953.69 3046.31 1953.69 3046.31 1.30438e+09 0.5
Loop time of 9.45206 on 4 procs for 100000 steps with 1000 atoms

unfix 4

fix 5 all npt temp 300 300 $(100.0*dt) iso 1.0 1.0 $(1000.0*dt)
fix 5 all npt temp 300 300 50 iso 1.0 1.0 $(1000.0*dt)
fix 5 all npt temp 300 300 50 iso 1.0 1.0 500

run 300000
Generated 0 of 1 mixed pair_coeff terms from geometric mixing rule
Step          Temp          Press          PotEng        Density         KinEng         TotEng           Lx             Ly             Lz            Xlo            Xhi            Ylo            Yhi            Zlo            Zhi           Volume           Dt            Time           CPU           T/CPU          S/CPU         CPULeft
17905000   1358.1069     -76.262822     -33688823       0.46083201     4044.2103     -33684778       1092.6173      1092.6173      1092.6173      1953.6914      3046.3086      1953.6914      3046.3086      1953.6914      3046.3086      1.3043802e+09  0.5            8955000        0              0              0              0
Averages over the last 751 of 1501 rows, steps 18055000 to 18205000:
Temp Press PotEng Density KinEng TotEng Lx Ly Lz Xlo Xhi Ylo Yhi Zlo Zhi Volume Dt
306.756 0.955597 -3.3984e+07 0.469601 913.468 -3.39831e+07 1085.77 1085.77 1085.77 1957.11 3042.89 1957.11 3042.89 1957.11 3042.89 1.28003e+09 0.5
Loop time of 34.9711 on 4 procs for 300000 steps with 1000 atoms

# run_style
run_style verlet

# write restart
write_restart ./pgnpmf/37/equpmf26.res
System init for write_restart ...
Generated 0 of 1 mixed pair_coeff terms from geometric mixing rule
