LAMMPS (23 Jun 2022 - Update 1)
# Read restart
read_restart ./pgnpmf/37/equpmf9.res
Reading restart file ...
  restart file = 23 Jun 2022, LAMMPS = 23 Jun 2022
  restoring atom style atomic from restart
  orthogonal box = (1807.1337 1807.1337 1807.1337) to (3192.8663 3192.8663 3192.8663)
  restoring pair style table from restart
  1000 atoms
  read_restart CPU = 0.015 seconds

# Settings

pair_style table spline 9941

pair_coeff 1 1 ./pgnpmf/N20.txt DE_GNP 75.6
pair_coeff 2 2 ./pgnpmf/N100.txt DE_GNP 115.92
pair_coeff 1 2 ./pgnpmf/mixed_potential.txt DE_GNP 95.66

#Neigh_list Calc Frequency

neigh_modify delay 0 every 1 check yes

# Saving Frequency (50 frames)

variable ts_save equal 5000

# Dump
#dump_modify 1 first no sort id
#dump 2 all cfg 50000 ./equilibration/trajectory/ovito/dumpgen.tens_*.cfg mass type xs ys zs fx fy fz

# thermo_style
thermo_style custom step temp press pe density ke etotal lx ly lz xlo xhi ylo yhi zlo zhi vol dt time cpu tpcpu spcpu cpuremain

# run info
timestep 0.5
thermo 200

# fix

fix 1 all momentum 1000 linear 1 1 1 angular
variable T equal 300
fix 2 all nvt temp 300 370000 100.0

run 100000
Generated 0 of 1 mixed pair_coeff terms from geometric mixing rule
Unused restart file global fix info:
  fix style: npt, fix ID: 5
  update every 1 steps, delay 0 steps, check yes
Step          Temp          Press          PotEng        Density         KinEng         TotEng           Lx             Ly             Lz            Xlo            Xhi            Ylo            Yhi            Zlo            Zhi           Volume           Dt            Time           CPU           T/CPU          S/CPU         CPULeft
6305000   310.2427       0.84161697    -16762218       0.225896       923.84979     -16761294       1385.7326      1385.7326      1385.7326      1807.1337      3192.8663      1807.1337      3192.8663      1807.1337      3192.8663      2.6609597e+09  0.5            3155000        0              0              0              0
Averages over the last 251 of 501 rows, steps 6355000 to 6405000:
Temp Press PotEng Density KinEng TotEng Lx Ly Lz Xlo Xhi Ylo Yhi Zlo Zhi Volume Dt
277071 12.312 -1.7231e+07 0.225896 825069 -1.6406e+07 1385.73 1385.73 1385.73 1807.13 3192.87 1807.13 3192.87 1807.13 3192.87 2.66096e+09 0.5
Loop time of 6.21236 on 4 procs for 100000 steps with 1000 atoms

unfix 2

fix 3 all nvt temp 370000 370000 $(100.0*dt) #iso 1.0 1.0 $(1000.0*dt)
fix 3 all nvt temp 370000 370000 50

run 200000
Generated 0 of 1 mixed pair_coeff terms from geometric mixing rule
Step          Temp          Press          PotEng        Density         KinEng         TotEng           Lx             Ly             Lz            Xlo            Xhi            Ylo            Yhi            Zlo            Zhi           Volume           Dt            Time           CPU           T/CPU          S/CPU         CPULeft
6405000   383496.49      10.318307     -16938621       0.225896       1141987.1     -15796634       1385.7326      1385.7326      1385.7326      1807.1337      3192.8663      1807.1337      3192.8663      1807.1337      3192.8663      2.6609597e+09  0.5            3205000        0              0              0              0
Averages over the last 501 of 1001 rows, steps 6505000 to 6605000:
Temp Press PotEng Density KinEng TotEng Lx Ly Lz Xlo Xhi Ylo Yhi Zlo Zhi Volume Dt
370135 5.30838 -1.58832e+07 0.225896 1.1022e+06 -1.4781e+07 1385.73 1385.73 1385.73 1807.13 3192.87 1807.13 3192.87 1807.13 3192.87 2.66096e+09 0.5
Loop time of 12.4289 on 4 procs for 200000 steps with 1000 atoms

unfix 3

fix 4 all nvt temp 370000 300 100.0

run 100000
Generated 0 of 1 mixed pair_coeff terms from geometric mixing rule
Step          Temp          Press          PotEng        Density         KinEng         TotEng           Lx             Ly             Lz            Xlo            Xhi            Ylo            Yhi            Zlo            Zhi           Volume           Dt            Time           CPU           T/CPU          S/CPU         CPULeft
6605000   376859.43     -0.83321957    -16032289       0.225896       1122223       -14910066       1385.7326      1385.7326      1385.7326      1807.1337      3192.8663      1807.1337      3192.8663      1807.1337      3192.8663      2.6609597e+09  0.5            3305000        0              0              0              0
Averages over the last 251 of 501 rows, steps 6655000 to 6705000:
Temp Press PotEng Density KinEng TotEng Lx Ly Lz Xlo Xhi Ylo Yhi Zlo Zhi Volume Dt
93074.1 -26.74 -1.73055e+07 0.225896 277159 -1.70283e+07 1385.73 1385.73 1385.73 1807.13 3192.87 1807.13 3192.87 1807.13 3192.87 2.66096e+09 0.5
Loop time of 6.31258 on 4 procs for 100000 steps with 1000 atoms

unfix 4

fix 5 all npt temp 300 300 $(100.0*dt) iso 1.0 1.0 $(1000.0*dt)
fix 5 all npt temp 300 300 50 iso 1.0 1.0 $(1000.0*dt)
fix 5 all npt temp 300 300 50 iso 1.0 1.0 500

run 300000
Generated 0 of 1 mixed pair_coeff terms from geometric mixing rule
Step          Temp          Press          PotEng        Density         KinEng         TotEng           Lx             Ly             Lz            Xlo            Xhi            Ylo            Yhi            Zlo            Zhi           Volume           Dt            Time           CPU           T/CPU          S/CPU         CPULeft
6705000   1365.2558     -32.214079     -17859626       0.225896       4065.4986     -17855561       1385.7326      1385.7326      1385.7326      1807.1337      3192.8663      1807.1337      3192.8663      1807.1337      3192.8663      2.6609597e+09  0.5            3355000        0              0              0              0
Averages over the last 751 of 1501 rows, steps 6855000 to 7005000:
Temp Press PotEng Density KinEng TotEng Lx Ly Lz Xlo Xhi Ylo Yhi Zlo Zhi Volume Dt
313.927 1.001 -1.84694e+07 0.244598 934.822 -1.84685e+07 1349.5 1349.5 1349.5 1825.25 3174.75 1825.25 3174.75 1825.25 3174.75 2.45774e+09 0.5
Loop time of 25.4224 on 4 procs for 300000 steps with 1000 atoms

# run_style
run_style verlet

# write restart
write_restart ./pgnpmf/37/equpmf10.res
System init for write_restart ...
Generated 0 of 1 mixed pair_coeff terms from geometric mixing rule
