LAMMPS (23 Jun 2022 - Update 1)
# Read restart
read_restart ./pgnpmf/37/equpmf56.res
Reading restart file ...
  restart file = 23 Jun 2022, LAMMPS = 23 Jun 2022
  restoring atom style atomic from restart
  orthogonal box = (2121.6101 2121.6101 2121.6101) to (2878.3899 2878.3899 2878.3899)
  restoring pair style table from restart
  1000 atoms
  read_restart CPU = 0.004 seconds

# Settings

pair_style table spline 9941

pair_coeff 1 1 ./pgnpmf/N20.txt DE_GNP 75.6
pair_coeff 2 2 ./pgnpmf/N100.txt DE_GNP 115.92
pair_coeff 1 2 ./pgnpmf/mixed_potential.txt DE_GNP 95.66

#Neigh_list Calc Frequency

neigh_modify delay 0 every 1 check yes

# Saving Frequency (50 frames)

variable ts_save equal 5000

# Dump
#dump_modify 1 first no sort id
#dump 2 all cfg 50000 ./equilibration/trajectory/ovito/dumpgen.tens_*.cfg mass type xs ys zs fx fy fz

# thermo_style
thermo_style custom step temp press pe density ke etotal lx ly lz xlo xhi ylo yhi zlo zhi vol dt time cpu tpcpu spcpu cpuremain

# run info
timestep 0.1
thermo 200

# fix

fix 1 all momentum 1000 linear 1 1 1 angular
variable T equal 300
fix 2 all nvt temp 300 370000 100.0

run 100000
Generated 0 of 1 mixed pair_coeff terms from geometric mixing rule
Unused restart file global fix info:
  fix style: npt, fix ID: 5
  update every 1 steps, delay 0 steps, check yes
Step          Temp          Press          PotEng        Density         KinEng         TotEng           Lx             Ly             Lz            Xlo            Xhi            Ylo            Yhi            Zlo            Zhi           Volume           Dt            Time           CPU           T/CPU          S/CPU         CPULeft
39205000   307.18309     -0.50344986    -40956799       1.3868784      914.73878     -40955884       756.77972      756.77972      756.77972      2121.6101      2878.3899      2121.6101      2878.3899      2121.6101      2878.3899      4.3341951e+08  0.1            14845000       0              0              0              0
Averages over the last 251 of 501 rows, steps 39255000 to 39305000:
Temp Press PotEng Density KinEng TotEng Lx Ly Lz Xlo Xhi Ylo Yhi Zlo Zhi Volume Dt
277777 503.286 -4.09304e+07 1.38688 827174 -4.01032e+07 756.78 756.78 756.78 2121.61 2878.39 2121.61 2878.39 2121.61 2878.39 4.3342e+08 0.1
Loop time of 19.0237 on 1 procs for 100000 steps with 1000 atoms

unfix 2

fix 3 all nvt temp 370000 370000 $(100.0*dt) #iso 1.0 1.0 $(1000.0*dt)
fix 3 all nvt temp 370000 370000 10

run 200000
Generated 0 of 1 mixed pair_coeff terms from geometric mixing rule
Step          Temp          Press          PotEng        Density         KinEng         TotEng           Lx             Ly             Lz            Xlo            Xhi            Ylo            Yhi            Zlo            Zhi           Volume           Dt            Time           CPU           T/CPU          S/CPU         CPULeft
39305000   362419.95      935.51375     -40791968       1.3868784      1079224.7     -39712743       756.77972      756.77972      756.77972      2121.6101      2878.3899      2121.6101      2878.3899      2121.6101      2878.3899      4.3341951e+08  0.1            14855000       0              0              0              0
Averages over the last 501 of 1001 rows, steps 39405000 to 39505000:
Temp Press PotEng Density KinEng TotEng Lx Ly Lz Xlo Xhi Ylo Yhi Zlo Zhi Volume Dt
369874 1049.23 -4.06101e+07 1.38688 1.10142e+06 -3.95086e+07 756.78 756.78 756.78 2121.61 2878.39 2121.61 2878.39 2121.61 2878.39 4.3342e+08 0.1
Loop time of 38.7997 on 1 procs for 200000 steps with 1000 atoms

unfix 3

fix 4 all nvt temp 370000 300 100.0

run 100000
Generated 0 of 1 mixed pair_coeff terms from geometric mixing rule
Step          Temp          Press          PotEng        Density         KinEng         TotEng           Lx             Ly             Lz            Xlo            Xhi            Ylo            Yhi            Zlo            Zhi           Volume           Dt            Time           CPU           T/CPU          S/CPU         CPULeft
39505000   357929.89      824.27052     -40449495       1.3868784      1065854.1     -39383641       756.77972      756.77972      756.77972      2121.6101      2878.3899      2121.6101      2878.3899      2121.6101      2878.3899      4.3341951e+08  0.1            14875000       0              0              0              0
Averages over the last 251 of 501 rows, steps 39555000 to 39605000:
Temp Press PotEng Density KinEng TotEng Lx Ly Lz Xlo Xhi Ylo Yhi Zlo Zhi Volume Dt
95956.6 -150.495 -4.05345e+07 1.38688 285742 -4.02488e+07 756.78 756.78 756.78 2121.61 2878.39 2121.61 2878.39 2121.61 2878.39 4.3342e+08 0.1
Loop time of 19.1033 on 1 procs for 100000 steps with 1000 atoms

unfix 4

fix 5 all npt temp 300 300 $(100.0*dt) iso 1.0 1.0 $(1000.0*dt)
fix 5 all npt temp 300 300 10 iso 1.0 1.0 $(1000.0*dt)
fix 5 all npt temp 300 300 10 iso 1.0 1.0 100

run 300000
Generated 0 of 1 mixed pair_coeff terms from geometric mixing rule
Step          Temp          Press          PotEng        Density         KinEng         TotEng           Lx             Ly             Lz            Xlo            Xhi            Ylo            Yhi            Zlo            Zhi           Volume           Dt            Time           CPU           T/CPU          S/CPU         CPULeft
39605000   5066.3232     -447.47361     -40686777       1.3868784      15086.645     -40671691       756.77972      756.77972      756.77972      2121.6101      2878.3899      2121.6101      2878.3899      2121.6101      2878.3899      4.3341951e+08  0.1            14885000       0              0              0              0
Averages over the last 751 of 1501 rows, steps 39755000 to 39905000:
Temp Press PotEng Density KinEng TotEng Lx Ly Lz Xlo Xhi Ylo Yhi Zlo Zhi Volume Dt
307.358 1.08511 -4.11194e+07 1.41363 915.258 -4.11185e+07 751.975 751.975 751.975 2124.01 2875.99 2124.01 2875.99 2124.01 2875.99 4.25217e+08 0.1
Loop time of 65.9739 on 1 procs for 300000 steps with 1000 atoms

# run_style
run_style verlet

# write restart
write_restart ./pgnpmf/37/equpmf57.res
System init for write_restart ...
Generated 0 of 1 mixed pair_coeff terms from geometric mixing rule
