LAMMPS (23 Jun 2022 - Update 1)
# Read restart
read_restart ./pgnpmf/0100/equpmf38.res
Reading restart file ...
  restart file = 23 Jun 2022, LAMMPS = 23 Jun 2022
  restoring atom style atomic from restart
  orthogonal box = (1226.1074 1226.1074 1226.1074) to (2773.8926 2773.8926 2773.8926)
  restoring pair style table from restart
  1000 atoms
  read_restart CPU = 0.004 seconds

# Settings

pair_style table spline 9941

pair_coeff 1 1 ./pgnpmf/N20.txt DE_GNP 75.6
pair_coeff 2 2 ./pgnpmf/N100.txt DE_GNP 115.92
pair_coeff 1 2 ./pgnpmf/mixed_potential.txt DE_GNP 95.66

#Neigh_list Calc Frequency

neigh_modify delay 0 every 1 check yes

# Saving Frequency (50 frames)

variable ts_save equal 5000

# Dump
#dump_modify 1 first no sort id
dump 2 all cfg 50000 ./pgnpmf/0100/equilibration/trajectory/dumpgen.tens_*.cfg mass type xs ys zs fx fy fz
dump_modify 2 element N20 N100

# thermo_style
thermo_style custom step temp press pe density ke etotal lx ly lz xlo xhi ylo yhi zlo zhi vol dt time cpu tpcpu spcpu cpuremain

# run info
timestep 0.1
thermo 10000

# fix

fix 1 all momentum 1000 linear 1 1 1 angular
variable T equal 300
fix 2 all nvt temp 300 370000 100.0

run 200000
Generated 0 of 1 mixed pair_coeff terms from geometric mixing rule
Unused restart file global fix info:
  fix style: npt, fix ID: 5
  update every 1 steps, delay 0 steps, check yes
Step          Temp          Press          PotEng        Density         KinEng         TotEng           Lx             Ly             Lz            Xlo            Xhi            Ylo            Yhi            Zlo            Zhi           Volume           Dt            Time           CPU           T/CPU          S/CPU         CPULeft
45460000   309.67402      1.1139401     -41531240       0.18900876     922.15636     -41530318       1547.7852      1547.7852      1547.7852      1226.1074      2773.8926      1226.1074      2773.8926      1226.1074      2773.8926      3.7079345e+09  0.1            5000000        0              0              0              0
Averages over the last 11 of 21 rows, steps 45560000 to 45660000:
Temp Press PotEng Density KinEng TotEng Lx Ly Lz Xlo Xhi Ylo Yhi Zlo Zhi Volume Dt
275988 16.9812 -4.21885e+07 0.189009 821844 -4.13667e+07 1547.79 1547.79 1547.79 1226.11 2773.89 1226.11 2773.89 1226.11 2773.89 3.70793e+09 0.1
Loop time of 16.5475 on 4 procs for 200000 steps with 1000 atoms

unfix 2

fix 3 all nvt temp 370000 370000 $(100.0*dt) #iso 1.0 1.0 $(1000.0*dt)
fix 3 all nvt temp 370000 370000 10

run 500000
Generated 0 of 1 mixed pair_coeff terms from geometric mixing rule
Step          Temp          Press          PotEng        Density         KinEng         TotEng           Lx             Ly             Lz            Xlo            Xhi            Ylo            Yhi            Zlo            Zhi           Volume           Dt            Time           CPU           T/CPU          S/CPU         CPULeft
45660000   367021.72      81.188547     -42378461       0.18900876     1092928       -41285533       1547.7852      1547.7852      1547.7852      1226.1074      2773.8926      1226.1074      2773.8926      1226.1074      2773.8926      3.7079345e+09  0.1            5020000        0              0              0              0
Averages over the last 26 of 51 rows, steps 45910000 to 46160000:
Temp Press PotEng Density KinEng TotEng Lx Ly Lz Xlo Xhi Ylo Yhi Zlo Zhi Volume Dt
370791 -37.9097 -4.06749e+07 0.189009 1.10415e+06 -3.95707e+07 1547.79 1547.79 1547.79 1226.11 2773.89 1226.11 2773.89 1226.11 2773.89 3.70793e+09 0.1
Loop time of 42.0336 on 4 procs for 500000 steps with 1000 atoms

unfix 3

fix 4 all nvt temp 370000 300 $(100.0*dt)
fix 4 all nvt temp 370000 300 10

run 200000
Generated 0 of 1 mixed pair_coeff terms from geometric mixing rule
Step          Temp          Press          PotEng        Density         KinEng         TotEng           Lx             Ly             Lz            Xlo            Xhi            Ylo            Yhi            Zlo            Zhi           Volume           Dt            Time           CPU           T/CPU          S/CPU         CPULeft
46160000   373901.67     -40.108165     -39817168       0.18900876     1113415.3     -38703752       1547.7852      1547.7852      1547.7852      1226.1074      2773.8926      1226.1074      2773.8926      1226.1074      2773.8926      3.7079345e+09  0.1            5070000        0              0              0              0
Averages over the last 11 of 21 rows, steps 46260000 to 46360000:
Temp Press PotEng Density KinEng TotEng Lx Ly Lz Xlo Xhi Ylo Yhi Zlo Zhi Volume Dt
92796.6 -110.057 -4.01282e+07 0.189009 276332 -3.98518e+07 1547.79 1547.79 1547.79 1226.11 2773.89 1226.11 2773.89 1226.11 2773.89 3.70793e+09 0.1
Loop time of 16.0636 on 4 procs for 200000 steps with 1000 atoms

unfix 4

fix 5 all npt temp 300 300 $(100.0*dt) iso 1.0 1.0 $(1000.0*dt)
fix 5 all npt temp 300 300 10 iso 1.0 1.0 $(1000.0*dt)
fix 5 all npt temp 300 300 10 iso 1.0 1.0 100

run 300000
Generated 0 of 1 mixed pair_coeff terms from geometric mixing rule
Step          Temp          Press          PotEng        Density         KinEng         TotEng           Lx             Ly             Lz            Xlo            Xhi            Ylo            Yhi            Zlo            Zhi           Volume           Dt            Time           CPU           T/CPU          S/CPU         CPULeft
46360000   521.25348     -135.27347     -40496879       0.18900876     1552.2039     -40495327       1547.7852      1547.7852      1547.7852      1226.1074      2773.8926      1226.1074      2773.8926      1226.1074      2773.8926      3.7079345e+09  0.1            5090000        0              0              0              0
Averages over the last 16 of 31 rows, steps 46510000 to 46660000:
Temp Press PotEng Density KinEng TotEng Lx Ly Lz Xlo Xhi Ylo Yhi Zlo Zhi Volume Dt
311.337 1.00461 -4.16261e+07 0.200138 927.11 -4.16252e+07 1518.55 1518.55 1518.55 1240.73 2759.27 1240.73 2759.27 1240.73 2759.27 3.50176e+09 0.1
Loop time of 30.0771 on 4 procs for 300000 steps with 1000 atoms

# run_style
run_style verlet

# write restart
write_restart ./pgnpmf/0100/equpmf39.res
System init for write_restart ...
Generated 0 of 1 mixed pair_coeff terms from geometric mixing rule
