LAMMPS (23 Jun 2022 - Update 1)
# Read restart
read_restart ./pgnpmf/0100/equpmf24.res
Reading restart file ...
  restart file = 23 Jun 2022, LAMMPS = 23 Jun 2022
  restoring atom style atomic from restart
  orthogonal box = (960.40495 960.40495 960.40495) to (3039.595 3039.595 3039.595)
  restoring pair style table from restart
  1000 atoms
  read_restart CPU = 0.006 seconds

# Settings

pair_style table spline 9941

pair_coeff 1 1 ./pgnpmf/N20.txt DE_GNP 75.6
pair_coeff 2 2 ./pgnpmf/N100.txt DE_GNP 115.92
pair_coeff 1 2 ./pgnpmf/mixed_potential.txt DE_GNP 95.66

#Neigh_list Calc Frequency

neigh_modify delay 0 every 1 check yes

# Saving Frequency (50 frames)

variable ts_save equal 5000

# Dump
#dump_modify 1 first no sort id
dump 2 all cfg 50000 ./pgnpmf/0100/equilibration/trajectory/dumpgen.tens_*.cfg mass type xs ys zs fx fy fz
dump_modify 2 element N20 N100

# thermo_style
thermo_style custom step temp press pe density ke etotal lx ly lz xlo xhi ylo yhi zlo zhi vol dt time cpu tpcpu spcpu cpuremain

# run info
timestep 0.1
thermo 10000

# fix

fix 1 all momentum 1000 linear 1 1 1 angular
variable T equal 300
fix 2 all nvt temp 300 370000 100.0

run 200000
Generated 0 of 1 mixed pair_coeff terms from geometric mixing rule
Unused restart file global fix info:
  fix style: npt, fix ID: 5
  update every 1 steps, delay 0 steps, check yes
Step          Temp          Press          PotEng        Density         KinEng         TotEng           Lx             Ly             Lz            Xlo            Xhi            Ylo            Yhi            Zlo            Zhi           Volume           Dt            Time           CPU           T/CPU          S/CPU         CPULeft
28660000   309.66364      0.75211684    -36211044       0.077970694    922.12545     -36210122       2079.1901      2079.1901      2079.1901      960.40495      3039.595       960.40495      3039.595       960.40495      3039.595       8.9884042e+09  0.1            3320000        0              0              0              0
Averages over the last 11 of 21 rows, steps 28760000 to 28860000:
Temp Press PotEng Density KinEng TotEng Lx Ly Lz Xlo Xhi Ylo Yhi Zlo Zhi Volume Dt
275010 13.1432 -3.70719e+07 0.0779707 818932 -3.6253e+07 2079.19 2079.19 2079.19 960.405 3039.59 960.405 3039.59 960.405 3039.59 8.9884e+09 0.1
Loop time of 20.1367 on 4 procs for 200000 steps with 1000 atoms

unfix 2

fix 3 all nvt temp 370000 370000 $(100.0*dt) #iso 1.0 1.0 $(1000.0*dt)
fix 3 all nvt temp 370000 370000 10

run 500000
Generated 0 of 1 mixed pair_coeff terms from geometric mixing rule
Step          Temp          Press          PotEng        Density         KinEng         TotEng           Lx             Ly             Lz            Xlo            Xhi            Ylo            Yhi            Zlo            Zhi           Volume           Dt            Time           CPU           T/CPU          S/CPU         CPULeft
28860000   354585.46      36.908822     -37347156       0.077970694    1055895       -36291261       2079.1901      2079.1901      2079.1901      960.40495      3039.595       960.40495      3039.595       960.40495      3039.595       8.9884042e+09  0.1            3340000        0              0              0              0
Averages over the last 26 of 51 rows, steps 29110000 to 29360000:
Temp Press PotEng Density KinEng TotEng Lx Ly Lz Xlo Xhi Ylo Yhi Zlo Zhi Volume Dt
369481 -12.2099 -3.54024e+07 0.0779707 1.10025e+06 -3.43022e+07 2079.19 2079.19 2079.19 960.405 3039.6 960.405 3039.6 960.405 3039.6 8.9884e+09 0.1
Loop time of 50.1024 on 4 procs for 500000 steps with 1000 atoms

unfix 3

fix 4 all nvt temp 370000 300 $(100.0*dt)
fix 4 all nvt temp 370000 300 10

run 200000
Generated 0 of 1 mixed pair_coeff terms from geometric mixing rule
Step          Temp          Press          PotEng        Density         KinEng         TotEng           Lx             Ly             Lz            Xlo            Xhi            Ylo            Yhi            Zlo            Zhi           Volume           Dt            Time           CPU           T/CPU          S/CPU         CPULeft
29360000   372984.1      -14.95889      -34619038       0.077970694    1110683       -33508355       2079.1901      2079.1901      2079.1901      960.40495      3039.595       960.40495      3039.595       960.40495      3039.595       8.9884042e+09  0.1            3390000        0              0              0              0
Averages over the last 11 of 21 rows, steps 29460000 to 29560000:
Temp Press PotEng Density KinEng TotEng Lx Ly Lz Xlo Xhi Ylo Yhi Zlo Zhi Volume Dt
91675.4 -37.769 -3.50099e+07 0.0779707 272994 -3.47369e+07 2079.19 2079.19 2079.19 960.405 3039.59 960.405 3039.59 960.405 3039.59 8.9884e+09 0.1
Loop time of 19.4409 on 4 procs for 200000 steps with 1000 atoms

unfix 4

fix 5 all npt temp 300 300 $(100.0*dt) iso 1.0 1.0 $(1000.0*dt)
fix 5 all npt temp 300 300 10 iso 1.0 1.0 $(1000.0*dt)
fix 5 all npt temp 300 300 10 iso 1.0 1.0 100

run 300000
Generated 0 of 1 mixed pair_coeff terms from geometric mixing rule
Step          Temp          Press          PotEng        Density         KinEng         TotEng           Lx             Ly             Lz            Xlo            Xhi            Ylo            Yhi            Zlo            Zhi           Volume           Dt            Time           CPU           T/CPU          S/CPU         CPULeft
29560000   521.29617     -47.717206     -35228023       0.077970694    1552.331      -35226471       2079.1901      2079.1901      2079.1901      960.40495      3039.595       960.40495      3039.595       960.40495      3039.595       8.9884042e+09  0.1            3410000        0              0              0              0
Averages over the last 16 of 31 rows, steps 29710000 to 29860000:
Temp Press PotEng Density KinEng TotEng Lx Ly Lz Xlo Xhi Ylo Yhi Zlo Zhi Volume Dt
311.908 0.990875 -3.63028e+07 0.0829534 928.809 -3.63019e+07 2036.7 2036.7 2036.7 981.648 3018.35 981.648 3018.35 981.648 3018.35 8.44861e+09 0.1
Loop time of 35.3379 on 4 procs for 300000 steps with 1000 atoms

# run_style
run_style verlet

# write restart
write_restart ./pgnpmf/0100/equpmf25.res
System init for write_restart ...
Generated 0 of 1 mixed pair_coeff terms from geometric mixing rule
