LAMMPS (23 Jun 2022 - Update 1)
# Read restart
read_restart ./pgnpmf/0100/equpmf58.res
Reading restart file ...
  restart file = 23 Jun 2022, LAMMPS = 23 Jun 2022
  restoring atom style atomic from restart
  orthogonal box = (1455.7155 1455.7155 1455.7155) to (2544.2845 2544.2845 2544.2845)
  restoring pair style table from restart
  1000 atoms
  read_restart CPU = 0.006 seconds

# Settings

pair_style table spline 9941

pair_coeff 1 1 ./pgnpmf/N20.txt DE_GNP 75.6
pair_coeff 2 2 ./pgnpmf/N100.txt DE_GNP 115.92
pair_coeff 1 2 ./pgnpmf/mixed_potential.txt DE_GNP 95.66

#Neigh_list Calc Frequency

neigh_modify delay 0 every 1 check yes

# Saving Frequency (50 frames)

variable ts_save equal 5000

# Dump
#dump_modify 1 first no sort id
dump 2 all cfg 50000 ./pgnpmf/0100/equilibration/trajectory/dumpgen.tens_*.cfg mass type xs ys zs fx fy fz
dump_modify 2 element N20 N100

# thermo_style
thermo_style custom step temp press pe density ke etotal lx ly lz xlo xhi ylo yhi zlo zhi vol dt time cpu tpcpu spcpu cpuremain

# run info
timestep 0.1
thermo 10000

# fix

fix 1 all momentum 1000 linear 1 1 1 angular
variable T equal 300
fix 2 all nvt temp 300 370000 100.0

run 200000
Generated 0 of 1 mixed pair_coeff terms from geometric mixing rule
Unused restart file global fix info:
  fix style: npt, fix ID: 5
  update every 1 steps, delay 0 steps, check yes
Step          Temp          Press          PotEng        Density         KinEng         TotEng           Lx             Ly             Lz            Xlo            Xhi            Ylo            Yhi            Zlo            Zhi           Volume           Dt            Time           CPU           T/CPU          S/CPU         CPULeft
69460000   308.5299       0.76934845    -46837132       0.54330812     918.74935     -46836214       1088.5689      1088.5689      1088.5689      1455.7155      2544.2845      1455.7155      2544.2845      1455.7155      2544.2845      1.2899349e+09  0.1            7400000        0              0              0              0
Averages over the last 11 of 21 rows, steps 69560000 to 69660000:
Temp Press PotEng Density KinEng TotEng Lx Ly Lz Xlo Xhi Ylo Yhi Zlo Zhi Volume Dt
275433 79.9594 -4.72979e+07 0.543308 820194 -4.64777e+07 1088.57 1088.57 1088.57 1455.72 2544.28 1455.72 2544.28 1455.72 2544.28 1.28993e+09 0.1
Loop time of 15.0306 on 4 procs for 200000 steps with 1000 atoms

unfix 2

fix 3 all nvt temp 370000 370000 $(100.0*dt) #iso 1.0 1.0 $(1000.0*dt)
fix 3 all nvt temp 370000 370000 10

run 500000
Generated 0 of 1 mixed pair_coeff terms from geometric mixing rule
Step          Temp          Press          PotEng        Density         KinEng         TotEng           Lx             Ly             Lz            Xlo            Xhi            Ylo            Yhi            Zlo            Zhi           Volume           Dt            Time           CPU           T/CPU          S/CPU         CPULeft
69660000   362943.86      271.22198     -47396234       0.54330812     1080784.8     -46315449       1088.5689      1088.5689      1088.5689      1455.7155      2544.2845      1455.7155      2544.2845      1455.7155      2544.2845      1.2899349e+09  0.1            7420000        0              0              0              0
Averages over the last 26 of 51 rows, steps 69910000 to 70160000:
Temp Press PotEng Density KinEng TotEng Lx Ly Lz Xlo Xhi Ylo Yhi Zlo Zhi Volume Dt
369302 -106.814 -4.59722e+07 0.543308 1.09972e+06 -4.48725e+07 1088.57 1088.57 1088.57 1455.72 2544.28 1455.72 2544.28 1455.72 2544.28 1.28993e+09 0.1
Loop time of 37.8534 on 4 procs for 500000 steps with 1000 atoms

unfix 3

fix 4 all nvt temp 370000 300 $(100.0*dt)
fix 4 all nvt temp 370000 300 10

run 200000
Generated 0 of 1 mixed pair_coeff terms from geometric mixing rule
Step          Temp          Press          PotEng        Density         KinEng         TotEng           Lx             Ly             Lz            Xlo            Xhi            Ylo            Yhi            Zlo            Zhi           Volume           Dt            Time           CPU           T/CPU          S/CPU         CPULeft
70160000   373112.91     -103.11182     -45281806       0.54330812     1111066.5     -44170740       1088.5689      1088.5689      1088.5689      1455.7155      2544.2845      1455.7155      2544.2845      1455.7155      2544.2845      1.2899349e+09  0.1            7470000        0              0              0              0
Averages over the last 11 of 21 rows, steps 70260000 to 70360000:
Temp Press PotEng Density KinEng TotEng Lx Ly Lz Xlo Xhi Ylo Yhi Zlo Zhi Volume Dt
93148.5 -298.776 -4.59528e+07 0.543308 277380 -4.56755e+07 1088.57 1088.57 1088.57 1455.72 2544.28 1455.72 2544.28 1455.72 2544.28 1.28993e+09 0.1
Loop time of 14.7367 on 4 procs for 200000 steps with 1000 atoms

unfix 4

fix 5 all npt temp 300 300 $(100.0*dt) iso 1.0 1.0 $(1000.0*dt)
fix 5 all npt temp 300 300 10 iso 1.0 1.0 $(1000.0*dt)
fix 5 all npt temp 300 300 10 iso 1.0 1.0 100

run 300000
Generated 0 of 1 mixed pair_coeff terms from geometric mixing rule
Step          Temp          Press          PotEng        Density         KinEng         TotEng           Lx             Ly             Lz            Xlo            Xhi            Ylo            Yhi            Zlo            Zhi           Volume           Dt            Time           CPU           T/CPU          S/CPU         CPULeft
70360000   521.70699     -372.55383     -46331985       0.54330812     1553.5543     -46330432       1088.5689      1088.5689      1088.5689      1455.7155      2544.2845      1455.7155      2544.2845      1455.7155      2544.2845      1.2899349e+09  0.1            7490000        0              0              0              0
Averages over the last 16 of 31 rows, steps 70510000 to 70660000:
Temp Press PotEng Density KinEng TotEng Lx Ly Lz Xlo Xhi Ylo Yhi Zlo Zhi Volume Dt
309.589 1.19865 -4.71757e+07 0.567988 921.902 -4.71748e+07 1072.57 1072.57 1072.57 1463.72 2536.28 1463.72 2536.28 1463.72 2536.28 1.23389e+09 0.1
Loop time of 26.2599 on 4 procs for 300000 steps with 1000 atoms

# run_style
run_style verlet

# write restart
write_restart ./pgnpmf/0100/equpmf59.res
System init for write_restart ...
Generated 0 of 1 mixed pair_coeff terms from geometric mixing rule
