LAMMPS (23 Jun 2022 - Update 1)
# Read restart
read_restart ./pgnpmf/0100/equpmf81.res
Reading restart file ...
  restart file = 23 Jun 2022, LAMMPS = 23 Jun 2022
  restoring atom style atomic from restart
  orthogonal box = (1618.7865 1618.7865 1618.7865) to (2381.2135 2381.2135 2381.2135)
  restoring pair style table from restart
  1000 atoms
  read_restart CPU = 0.003 seconds

# Settings

pair_style table spline 9941

pair_coeff 1 1 ./pgnpmf/N20.txt DE_GNP 75.6
pair_coeff 2 2 ./pgnpmf/N100.txt DE_GNP 115.92
pair_coeff 1 2 ./pgnpmf/mixed_potential.txt DE_GNP 95.66

#Neigh_list Calc Frequency

neigh_modify delay 0 every 1 check yes

# Saving Frequency (50 frames)

variable ts_save equal 50000

variable nts equal 50000/0.1
variable medium equal 500000*3
variable long equal 500000*5

# Dump
#dump_modify 1 first no sort id
dump 2 all cfg 50000 ./pgnpmf/0100/equilibration/trajectory/dumpequ.tens_*.cfg mass type xs ys zs fx fy fz
dump_modify 2 element N20 N100

# thermo_style
thermo_style custom step temp press pe density ke etotal lx ly lz xlo xhi ylo yhi zlo zhi vol dt time cpu tpcpu spcpu cpuremain

# run info
timestep 0.1
thermo 5000

# fix

fix 1 all momentum 1000 linear 1 1 1 angular
variable T equal 300
fix 2 all nvt temp 300 370000 100.0

run 500000
Generated 0 of 1 mixed pair_coeff terms from geometric mixing rule
Unused restart file global fix info:
  fix style: npt, fix ID: 5
  update every 1 steps, delay 0 steps, check yes
Step          Temp          Press          PotEng        Density         KinEng         TotEng           Lx             Ly             Lz            Xlo            Xhi            Ylo            Yhi            Zlo            Zhi           Volume           Dt            Time           CPU           T/CPU          S/CPU         CPULeft
135060000   293.5964       1.7994179     -61860688       1.5813174      874.27994     -61859814       762.42708      762.42708      762.42708      1618.7865      2381.2135      1618.7865      2381.2135      1618.7865      2381.2135      4.431951e+08   0.1            13960000       0              0              0              0
Averages over the last 51 of 101 rows, steps 135310000 to 135560000:
Temp Press PotEng Density KinEng TotEng Lx Ly Lz Xlo Xhi Ylo Yhi Zlo Zhi Volume Dt
279089 1406.12 -6.09646e+07 1.58132 831079 -6.01335e+07 762.427 762.427 762.427 1618.79 2381.21 1618.79 2381.21 1618.79 2381.21 4.43195e+08 0.1
Loop time of 29.0538 on 4 procs for 500000 steps with 1000 atoms

unfix 2

fix 3 all nvt temp 370000 370000 $(100.0*dt) #iso 1.0 1.0 $(1000.0*dt)
fix 3 all nvt temp 370000 370000 10

run 2500000
Generated 0 of 1 mixed pair_coeff terms from geometric mixing rule
Step          Temp          Press          PotEng        Density         KinEng         TotEng           Lx             Ly             Lz            Xlo            Xhi            Ylo            Yhi            Zlo            Zhi           Volume           Dt            Time           CPU           T/CPU          S/CPU         CPULeft
135560000   367812.73      1695.225      -60658487       1.5813174      1095283.5     -59563204       762.42708      762.42708      762.42708      1618.7865      2381.2135      1618.7865      2381.2135      1618.7865      2381.2135      4.431951e+08   0.1            14010000       0              0              0              0
Averages over the last 251 of 501 rows, steps 136810000 to 138060000:
Temp Press PotEng Density KinEng TotEng Lx Ly Lz Xlo Xhi Ylo Yhi Zlo Zhi Volume Dt
369172 1623.38 -6.08043e+07 1.58132 1.09933e+06 -5.9705e+07 762.427 762.427 762.427 1618.79 2381.21 1618.79 2381.21 1618.79 2381.21 4.43195e+08 0.1
Loop time of 145.617 on 4 procs for 2500000 steps with 1000 atoms

unfix 3

fix 4 all nvt temp 370000 300 100.0

run 500000
Generated 0 of 1 mixed pair_coeff terms from geometric mixing rule
Step          Temp          Press          PotEng        Density         KinEng         TotEng           Lx             Ly             Lz            Xlo            Xhi            Ylo            Yhi            Zlo            Zhi           Volume           Dt            Time           CPU           T/CPU          S/CPU         CPULeft
138060000   373994.72      1601.5355     -60792368       1.5813174      1113692.4     -59678675       762.42708      762.42708      762.42708      1618.7865      2381.2135      1618.7865      2381.2135      1618.7865      2381.2135      4.431951e+08   0.1            14260000       0              0              0              0
Averages over the last 51 of 101 rows, steps 138310000 to 138560000:
Temp Press PotEng Density KinEng TotEng Lx Ly Lz Xlo Xhi Ylo Yhi Zlo Zhi Volume Dt
92880.8 376.826 -6.15423e+07 1.58132 276583 -6.12657e+07 762.427 762.427 762.427 1618.79 2381.21 1618.79 2381.21 1618.79 2381.21 4.43195e+08 0.1
Loop time of 28.8318 on 4 procs for 500000 steps with 1000 atoms

unfix 4

fix 5 all npt temp 300 300 $(100.0*dt) iso 1.0 1.0 $(1000.0*dt)
fix 5 all npt temp 300 300 10 iso 1.0 1.0 $(1000.0*dt)
fix 5 all npt temp 300 300 10 iso 1.0 1.0 100

run 1500000
Generated 0 of 1 mixed pair_coeff terms from geometric mixing rule
Step          Temp          Press          PotEng        Density         KinEng         TotEng           Lx             Ly             Lz            Xlo            Xhi            Ylo            Yhi            Zlo            Zhi           Volume           Dt            Time           CPU           T/CPU          S/CPU         CPULeft
138560000   1380.2541     -15.363271     -61814607       1.5813174      4110.1609     -61810497       762.42708      762.42708      762.42708      1618.7865      2381.2135      1618.7865      2381.2135      1618.7865      2381.2135      4.431951e+08   0.1            14310000       0              0              0              0
Averages over the last 151 of 301 rows, steps 139310000 to 140060000:
Temp Press PotEng Density KinEng TotEng Lx Ly Lz Xlo Xhi Ylo Yhi Zlo Zhi Volume Dt
300.394 1.4321 -6.19022e+07 1.58293 894.522 -6.19013e+07 762.168 762.168 762.168 1618.92 2381.08 1618.92 2381.08 1618.92 2381.08 4.42743e+08 0.1
Loop time of 101.548 on 4 procs for 1500000 steps with 1000 atoms

# run_style
run_style verlet

# write restart
write_restart ./pgnpmf/0100/equpmf82.res
System init for write_restart ...
Generated 0 of 1 mixed pair_coeff terms from geometric mixing rule
