LAMMPS (23 Jun 2022 - Update 1)
# Read restart
read_restart ./pgnpmf/0100/equpmf79.res
Reading restart file ...
  restart file = 23 Jun 2022, LAMMPS = 23 Jun 2022
  restoring atom style atomic from restart
  orthogonal box = (1615.3953 1615.3953 1615.3953) to (2384.6047 2384.6047 2384.6047)
  restoring pair style table from restart
  1000 atoms
  read_restart CPU = 0.002 seconds

# Settings

pair_style table spline 9941

pair_coeff 1 1 ./pgnpmf/N20.txt DE_GNP 75.6
pair_coeff 2 2 ./pgnpmf/N100.txt DE_GNP 115.92
pair_coeff 1 2 ./pgnpmf/mixed_potential.txt DE_GNP 95.66

#Neigh_list Calc Frequency

neigh_modify delay 0 every 1 check yes

# Saving Frequency (50 frames)

variable ts_save equal 50000

variable nts equal 50000/0.1
variable medium equal 500000*3
variable long equal 500000*5

# Dump
#dump_modify 1 first no sort id
dump 2 all cfg 50000 ./pgnpmf/0100/equilibration/trajectory/dumpequ.tens_*.cfg mass type xs ys zs fx fy fz
dump_modify 2 element N20 N100

# thermo_style
thermo_style custom step temp press pe density ke etotal lx ly lz xlo xhi ylo yhi zlo zhi vol dt time cpu tpcpu spcpu cpuremain

# run info
timestep 0.1
thermo 5000

# fix

fix 1 all momentum 1000 linear 1 1 1 angular
variable T equal 300
fix 2 all nvt temp 300 370000 100.0

run 500000
Generated 0 of 1 mixed pair_coeff terms from geometric mixing rule
Unused restart file global fix info:
  fix style: npt, fix ID: 5
  update every 1 steps, delay 0 steps, check yes
Step          Temp          Press          PotEng        Density         KinEng         TotEng           Lx             Ly             Lz            Xlo            Xhi            Ylo            Yhi            Zlo            Zhi           Volume           Dt            Time           CPU           T/CPU          S/CPU         CPULeft
125060000   312.16924     -4.408999      -60294544       1.539856       929.58669     -60293614       769.20947      769.20947      769.20947      1615.3953      2384.6047      1615.3953      2384.6047      1615.3953      2384.6047      4.5512833e+08  0.1            12960000       0              0              0              0
Averages over the last 51 of 101 rows, steps 125310000 to 125560000:
Temp Press PotEng Density KinEng TotEng Lx Ly Lz Xlo Xhi Ylo Yhi Zlo Zhi Volume Dt
276856 959.284 -5.97673e+07 1.53986 824431 -5.89429e+07 769.209 769.209 769.209 1615.4 2384.6 1615.4 2384.6 1615.4 2384.6 4.55128e+08 0.1
Loop time of 28.3257 on 4 procs for 500000 steps with 1000 atoms

unfix 2

fix 3 all nvt temp 370000 370000 $(100.0*dt) #iso 1.0 1.0 $(1000.0*dt)
fix 3 all nvt temp 370000 370000 10

run 2500000
Generated 0 of 1 mixed pair_coeff terms from geometric mixing rule
Step          Temp          Press          PotEng        Density         KinEng         TotEng           Lx             Ly             Lz            Xlo            Xhi            Ylo            Yhi            Zlo            Zhi           Volume           Dt            Time           CPU           T/CPU          S/CPU         CPULeft
125560000   369091.98      1301.1657     -59547865       1.539856       1099092.9     -58448772       769.20947      769.20947      769.20947      1615.3953      2384.6047      1615.3953      2384.6047      1615.3953      2384.6047      4.5512833e+08  0.1            13010000       0              0              0              0
Averages over the last 251 of 501 rows, steps 126810000 to 128060000:
Temp Press PotEng Density KinEng TotEng Lx Ly Lz Xlo Xhi Ylo Yhi Zlo Zhi Volume Dt
370396 896.039 -5.98732e+07 1.53986 1.10297e+06 -5.87702e+07 769.209 769.209 769.209 1615.4 2384.6 1615.4 2384.6 1615.4 2384.6 4.55128e+08 0.1
Loop time of 141.273 on 4 procs for 2500000 steps with 1000 atoms

unfix 3

fix 4 all nvt temp 370000 300 100.0

run 500000
Generated 0 of 1 mixed pair_coeff terms from geometric mixing rule
Step          Temp          Press          PotEng        Density         KinEng         TotEng           Lx             Ly             Lz            Xlo            Xhi            Ylo            Yhi            Zlo            Zhi           Volume           Dt            Time           CPU           T/CPU          S/CPU         CPULeft
128060000   374629.52      972.87035     -59827994       1.539856       1115582.7     -58712411       769.20947      769.20947      769.20947      1615.3953      2384.6047      1615.3953      2384.6047      1615.3953      2384.6047      4.5512833e+08  0.1            13260000       0              0              0              0
Averages over the last 51 of 101 rows, steps 128310000 to 128560000:
Temp Press PotEng Density KinEng TotEng Lx Ly Lz Xlo Xhi Ylo Yhi Zlo Zhi Volume Dt
93060 -415.81 -6.0533e+07 1.53986 277117 -6.02559e+07 769.209 769.209 769.209 1615.4 2384.6 1615.4 2384.6 1615.4 2384.6 4.55128e+08 0.1
Loop time of 27.9317 on 4 procs for 500000 steps with 1000 atoms

unfix 4

fix 5 all npt temp 300 300 $(100.0*dt) iso 1.0 1.0 $(1000.0*dt)
fix 5 all npt temp 300 300 10 iso 1.0 1.0 $(1000.0*dt)
fix 5 all npt temp 300 300 10 iso 1.0 1.0 100

run 1500000
Generated 0 of 1 mixed pair_coeff terms from geometric mixing rule
Step          Temp          Press          PotEng        Density         KinEng         TotEng           Lx             Ly             Lz            Xlo            Xhi            Ylo            Yhi            Zlo            Zhi           Volume           Dt            Time           CPU           T/CPU          S/CPU         CPULeft
128560000   1375.668      -816.69777     -60748485       1.539856       4096.5042     -60744389       769.20947      769.20947      769.20947      1615.3953      2384.6047      1615.3953      2384.6047      1615.3953      2384.6047      4.5512833e+08  0.1            13310000       0              0              0              0
Averages over the last 151 of 301 rows, steps 129310000 to 130060000:
Temp Press PotEng Density KinEng TotEng Lx Ly Lz Xlo Xhi Ylo Yhi Zlo Zhi Volume Dt
299.502 0.455685 -6.13238e+07 1.57238 891.866 -6.13229e+07 763.869 763.869 763.869 1618.07 2381.93 1618.07 2381.93 1618.07 2381.93 4.45715e+08 0.1
Loop time of 99.0224 on 4 procs for 1500000 steps with 1000 atoms

# run_style
run_style verlet

# write restart
write_restart ./pgnpmf/0100/equpmf80.res
System init for write_restart ...
Generated 0 of 1 mixed pair_coeff terms from geometric mixing rule
