LAMMPS (23 Jun 2022 - Update 1)
# Read restart
read_restart ./pgnpmf/0100/equpmf78.res
Reading restart file ...
  restart file = 23 Jun 2022, LAMMPS = 23 Jun 2022
  restoring atom style atomic from restart
  orthogonal box = (1607.9751 1607.9751 1607.9751) to (2392.0249 2392.0249 2392.0249)
  restoring pair style table from restart
  1000 atoms
  read_restart CPU = 0.003 seconds

# Settings

pair_style table spline 9941

pair_coeff 1 1 ./pgnpmf/N20.txt DE_GNP 75.6
pair_coeff 2 2 ./pgnpmf/N100.txt DE_GNP 115.92
pair_coeff 1 2 ./pgnpmf/mixed_potential.txt DE_GNP 95.66

#Neigh_list Calc Frequency

neigh_modify delay 0 every 1 check yes

# Saving Frequency (50 frames)

variable ts_save equal 50000

variable nts equal 50000/0.1
variable medium equal 500000*3
variable long equal 500000*5

# Dump
#dump_modify 1 first no sort id
dump 2 all cfg 50000 ./pgnpmf/0100/equilibration/trajectory/dumpequ.tens_*.cfg mass type xs ys zs fx fy fz
dump_modify 2 element N20 N100

# thermo_style
thermo_style custom step temp press pe density ke etotal lx ly lz xlo xhi ylo yhi zlo zhi vol dt time cpu tpcpu spcpu cpuremain

# run info
timestep 0.1
thermo 5000

# fix

fix 1 all momentum 1000 linear 1 1 1 angular
variable T equal 300
fix 2 all nvt temp 300 370000 100.0

run 500000
Generated 0 of 1 mixed pair_coeff terms from geometric mixing rule
Unused restart file global fix info:
  fix style: npt, fix ID: 5
  update every 1 steps, delay 0 steps, check yes
Step          Temp          Press          PotEng        Density         KinEng         TotEng           Lx             Ly             Lz            Xlo            Xhi            Ylo            Yhi            Zlo            Zhi           Volume           Dt            Time           CPU           T/CPU          S/CPU         CPULeft
120060000   296.32913      0.43247135    -59282562       1.4540623      882.41755     -59281680       784.04982      784.04982      784.04982      1607.9751      2392.0249      1607.9751      2392.0249      1607.9751      2392.0249      4.8198217e+08  0.1            12460000       0              0              0              0
Averages over the last 51 of 101 rows, steps 120310000 to 120560000:
Temp Press PotEng Density KinEng TotEng Lx Ly Lz Xlo Xhi Ylo Yhi Zlo Zhi Volume Dt
277146 374.049 -5.84278e+07 1.45406 825294 -5.76025e+07 784.05 784.05 784.05 1607.98 2392.02 1607.98 2392.02 1607.98 2392.02 4.81982e+08 0.1
Loop time of 28.4878 on 4 procs for 500000 steps with 1000 atoms

unfix 2

fix 3 all nvt temp 370000 370000 $(100.0*dt) #iso 1.0 1.0 $(1000.0*dt)
fix 3 all nvt temp 370000 370000 10

run 2500000
Generated 0 of 1 mixed pair_coeff terms from geometric mixing rule
Step          Temp          Press          PotEng        Density         KinEng         TotEng           Lx             Ly             Lz            Xlo            Xhi            Ylo            Yhi            Zlo            Zhi           Volume           Dt            Time           CPU           T/CPU          S/CPU         CPULeft
120560000   348429.83      655.52125     -58027928       1.4540623      1037564.5     -56990363       784.04982      784.04982      784.04982      1607.9751      2392.0249      1607.9751      2392.0249      1607.9751      2392.0249      4.8198217e+08  0.1            12510000       0              0              0              0
Averages over the last 251 of 501 rows, steps 121810000 to 123060000:
Temp Press PotEng Density KinEng TotEng Lx Ly Lz Xlo Xhi Ylo Yhi Zlo Zhi Volume Dt
371018 52.2442 -5.78155e+07 1.45406 1.10483e+06 -5.67107e+07 784.05 784.05 784.05 1607.98 2392.02 1607.98 2392.02 1607.98 2392.02 4.81982e+08 0.1
Loop time of 140.463 on 4 procs for 2500000 steps with 1000 atoms

unfix 3

fix 4 all nvt temp 370000 300 100.0

run 500000
Generated 0 of 1 mixed pair_coeff terms from geometric mixing rule
Step          Temp          Press          PotEng        Density         KinEng         TotEng           Lx             Ly             Lz            Xlo            Xhi            Ylo            Yhi            Zlo            Zhi           Volume           Dt            Time           CPU           T/CPU          S/CPU         CPULeft
123060000   379570.33      83.736241     -57594584       1.4540623      1130295.6     -56464288       784.04982      784.04982      784.04982      1607.9751      2392.0249      1607.9751      2392.0249      1607.9751      2392.0249      4.8198217e+08  0.1            12760000       0              0              0              0
Averages over the last 51 of 101 rows, steps 123310000 to 123560000:
Temp Press PotEng Density KinEng TotEng Lx Ly Lz Xlo Xhi Ylo Yhi Zlo Zhi Volume Dt
92598.5 -1191.33 -5.83888e+07 1.45406 275742 -5.81131e+07 784.05 784.05 784.05 1607.98 2392.02 1607.98 2392.02 1607.98 2392.02 4.81982e+08 0.1
Loop time of 27.294 on 4 procs for 500000 steps with 1000 atoms

unfix 4

fix 5 all npt temp 300 300 $(100.0*dt) iso 1.0 1.0 $(1000.0*dt)
fix 5 all npt temp 300 300 10 iso 1.0 1.0 $(1000.0*dt)
fix 5 all npt temp 300 300 10 iso 1.0 1.0 100

run 1500000
Generated 0 of 1 mixed pair_coeff terms from geometric mixing rule
Step          Temp          Press          PotEng        Density         KinEng         TotEng           Lx             Ly             Lz            Xlo            Xhi            Ylo            Yhi            Zlo            Zhi           Volume           Dt            Time           CPU           T/CPU          S/CPU         CPULeft
123560000   1367.6387     -1566.931      -58618718       1.4540623      4072.5945     -58614645       784.04982      784.04982      784.04982      1607.9751      2392.0249      1607.9751      2392.0249      1607.9751      2392.0249      4.8198217e+08  0.1            12810000       0              0              0              0
Averages over the last 151 of 301 rows, steps 124310000 to 125060000:
Temp Press PotEng Density KinEng TotEng Lx Ly Lz Xlo Xhi Ylo Yhi Zlo Zhi Volume Dt
301.076 0.97302 -6.01984e+07 1.5377 896.553 -6.01975e+07 769.568 769.568 769.568 1615.22 2384.78 1615.22 2384.78 1615.22 2384.78 4.55766e+08 0.1
Loop time of 98.8229 on 4 procs for 1500000 steps with 1000 atoms

# run_style
run_style verlet

# write restart
write_restart ./pgnpmf/0100/equpmf79.res
System init for write_restart ...
Generated 0 of 1 mixed pair_coeff terms from geometric mixing rule
