LAMMPS (23 Jun 2022 - Update 1)
# Read restart
read_restart ./pgnpmf/0100/equpmf26.res
Reading restart file ...
  restart file = 23 Jun 2022, LAMMPS = 23 Jun 2022
  restoring atom style atomic from restart
  orthogonal box = (1006.1412 1006.1412 1006.1412) to (2993.8588 2993.8588 2993.8588)
  restoring pair style table from restart
  1000 atoms
  read_restart CPU = 0.003 seconds

# Settings

pair_style table spline 9941

pair_coeff 1 1 ./pgnpmf/N20.txt DE_GNP 75.6
pair_coeff 2 2 ./pgnpmf/N100.txt DE_GNP 115.92
pair_coeff 1 2 ./pgnpmf/mixed_potential.txt DE_GNP 95.66

#Neigh_list Calc Frequency

neigh_modify delay 0 every 1 check yes

# Saving Frequency (50 frames)

variable ts_save equal 5000

# Dump
#dump_modify 1 first no sort id
dump 2 all cfg 50000 ./pgnpmf/0100/equilibration/trajectory/dumpgen.tens_*.cfg mass type xs ys zs fx fy fz
dump_modify 2 element N20 N100

# thermo_style
thermo_style custom step temp press pe density ke etotal lx ly lz xlo xhi ylo yhi zlo zhi vol dt time cpu tpcpu spcpu cpuremain

# run info
timestep 0.1
thermo 10000

# fix

fix 1 all momentum 1000 linear 1 1 1 angular
variable T equal 300
fix 2 all nvt temp 300 370000 100.0

run 200000
Generated 0 of 1 mixed pair_coeff terms from geometric mixing rule
Unused restart file global fix info:
  fix style: npt, fix ID: 5
  update every 1 steps, delay 0 steps, check yes
Step          Temp          Press          PotEng        Density         KinEng         TotEng           Lx             Ly             Lz            Xlo            Xhi            Ylo            Yhi            Zlo            Zhi           Volume           Dt            Time           CPU           T/CPU          S/CPU         CPULeft
31060000   310.74692      0.96031584    -37561084       0.089238018    925.35128     -37560158       1987.7176      1987.7176      1987.7176      1006.1412      2993.8588      1006.1412      2993.8588      1006.1412      2993.8588      7.853515e+09   0.1            3560000        0              0              0              0
Averages over the last 11 of 21 rows, steps 31160000 to 31260000:
Temp Press PotEng Density KinEng TotEng Lx Ly Lz Xlo Xhi Ylo Yhi Zlo Zhi Volume Dt
276403 11.5915 -3.83336e+07 0.089238 823080 -3.75105e+07 1987.72 1987.72 1987.72 1006.14 2993.86 1006.14 2993.86 1006.14 2993.86 7.85352e+09 0.1
Loop time of 20.1946 on 4 procs for 200000 steps with 1000 atoms

unfix 2

fix 3 all nvt temp 370000 370000 $(100.0*dt) #iso 1.0 1.0 $(1000.0*dt)
fix 3 all nvt temp 370000 370000 10

run 500000
Generated 0 of 1 mixed pair_coeff terms from geometric mixing rule
Step          Temp          Press          PotEng        Density         KinEng         TotEng           Lx             Ly             Lz            Xlo            Xhi            Ylo            Yhi            Zlo            Zhi           Volume           Dt            Time           CPU           T/CPU          S/CPU         CPULeft
31260000   365932.92      36.799115     -38606975       0.089238018    1089685.7     -37517290       1987.7176      1987.7176      1987.7176      1006.1412      2993.8588      1006.1412      2993.8588      1006.1412      2993.8588      7.853515e+09   0.1            3580000        0              0              0              0
Averages over the last 26 of 51 rows, steps 31510000 to 31760000:
Temp Press PotEng Density KinEng TotEng Lx Ly Lz Xlo Xhi Ylo Yhi Zlo Zhi Volume Dt
374405 -16.4001 -3.66833e+07 0.089238 1.11491e+06 -3.55684e+07 1987.72 1987.72 1987.72 1006.14 2993.86 1006.14 2993.86 1006.14 2993.86 7.85352e+09 0.1
Loop time of 50.1213 on 4 procs for 500000 steps with 1000 atoms

unfix 3

fix 4 all nvt temp 370000 300 $(100.0*dt)
fix 4 all nvt temp 370000 300 10

run 200000
Generated 0 of 1 mixed pair_coeff terms from geometric mixing rule
Step          Temp          Press          PotEng        Density         KinEng         TotEng           Lx             Ly             Lz            Xlo            Xhi            Ylo            Yhi            Zlo            Zhi           Volume           Dt            Time           CPU           T/CPU          S/CPU         CPULeft
31760000   373340.78     -13.492443     -35848439       0.089238018    1111745.1     -34736693       1987.7176      1987.7176      1987.7176      1006.1412      2993.8588      1006.1412      2993.8588      1006.1412      2993.8588      7.853515e+09   0.1            3630000        0              0              0              0
Averages over the last 11 of 21 rows, steps 31860000 to 31960000:
Temp Press PotEng Density KinEng TotEng Lx Ly Lz Xlo Xhi Ylo Yhi Zlo Zhi Volume Dt
91695.7 -44.2222 -3.6102e+07 0.089238 273054 -3.5829e+07 1987.72 1987.72 1987.72 1006.14 2993.86 1006.14 2993.86 1006.14 2993.86 7.85352e+09 0.1
Loop time of 17.0418 on 4 procs for 200000 steps with 1000 atoms

unfix 4

fix 5 all npt temp 300 300 $(100.0*dt) iso 1.0 1.0 $(1000.0*dt)
fix 5 all npt temp 300 300 10 iso 1.0 1.0 $(1000.0*dt)
fix 5 all npt temp 300 300 10 iso 1.0 1.0 100

run 300000
Generated 0 of 1 mixed pair_coeff terms from geometric mixing rule
Step          Temp          Press          PotEng        Density         KinEng         TotEng           Lx             Ly             Lz            Xlo            Xhi            Ylo            Yhi            Zlo            Zhi           Volume           Dt            Time           CPU           T/CPU          S/CPU         CPULeft
31960000   520.77935     -55.503643     -36346701       0.089238018    1550.792      -36345151       1987.7176      1987.7176      1987.7176      1006.1412      2993.8588      1006.1412      2993.8588      1006.1412      2993.8588      7.853515e+09   0.1            3650000        0              0              0              0
Averages over the last 16 of 31 rows, steps 32110000 to 32260000:
Temp Press PotEng Density KinEng TotEng Lx Ly Lz Xlo Xhi Ylo Yhi Zlo Zhi Volume Dt
311.924 1.06012 -3.74495e+07 0.0947549 928.857 -3.74485e+07 1948.37 1948.37 1948.37 1025.81 2974.19 1025.81 2974.19 1025.81 2974.19 7.39635e+09 0.1
Loop time of 31.0448 on 4 procs for 300000 steps with 1000 atoms

# run_style
run_style verlet

# write restart
write_restart ./pgnpmf/0100/equpmf27.res
System init for write_restart ...
Generated 0 of 1 mixed pair_coeff terms from geometric mixing rule
