LAMMPS (23 Jun 2022 - Update 1)
# Read restart
read_restart ./pgnpmf/0100/equpmf34.res
Reading restart file ...
  restart file = 23 Jun 2022, LAMMPS = 23 Jun 2022
  restoring atom style atomic from restart
  orthogonal box = (1160.1979 1160.1979 1160.1979) to (2839.8021 2839.8021 2839.8021)
  restoring pair style table from restart
  1000 atoms
  read_restart CPU = 0.005 seconds

# Settings

pair_style table spline 9941

pair_coeff 1 1 ./pgnpmf/N20.txt DE_GNP 75.6
pair_coeff 2 2 ./pgnpmf/N100.txt DE_GNP 115.92
pair_coeff 1 2 ./pgnpmf/mixed_potential.txt DE_GNP 95.66

#Neigh_list Calc Frequency

neigh_modify delay 0 every 1 check yes

# Saving Frequency (50 frames)

variable ts_save equal 5000

# Dump
#dump_modify 1 first no sort id
dump 2 all cfg 50000 ./pgnpmf/0100/equilibration/trajectory/dumpgen.tens_*.cfg mass type xs ys zs fx fy fz
dump_modify 2 element N20 N100

# thermo_style
thermo_style custom step temp press pe density ke etotal lx ly lz xlo xhi ylo yhi zlo zhi vol dt time cpu tpcpu spcpu cpuremain

# run info
timestep 0.1
thermo 10000

# fix

fix 1 all momentum 1000 linear 1 1 1 angular
variable T equal 300
fix 2 all nvt temp 300 370000 100.0

run 200000
Generated 0 of 1 mixed pair_coeff terms from geometric mixing rule
Unused restart file global fix info:
  fix style: npt, fix ID: 5
  update every 1 steps, delay 0 steps, check yes
Step          Temp          Press          PotEng        Density         KinEng         TotEng           Lx             Ly             Lz            Xlo            Xhi            Ylo            Yhi            Zlo            Zhi           Volume           Dt            Time           CPU           T/CPU          S/CPU         CPULeft
40660000   310.03017      0.74438465    -39955286       0.14790851     923.21691     -39954363       1679.6042      1679.6042      1679.6042      1160.1979      2839.8021      1160.1979      2839.8021      1160.1979      2839.8021      4.7382812e+09  0.1            4520000        0              0              0              0
Averages over the last 11 of 21 rows, steps 40760000 to 40860000:
Temp Press PotEng Density KinEng TotEng Lx Ly Lz Xlo Xhi Ylo Yhi Zlo Zhi Volume Dt
278845 20.4405 -4.09064e+07 0.147909 830353 -4.00761e+07 1679.6 1679.6 1679.6 1160.2 2839.8 1160.2 2839.8 1160.2 2839.8 4.73828e+09 0.1
Loop time of 20.0078 on 4 procs for 200000 steps with 1000 atoms

unfix 2

fix 3 all nvt temp 370000 370000 $(100.0*dt) #iso 1.0 1.0 $(1000.0*dt)
fix 3 all nvt temp 370000 370000 10

run 500000
Generated 0 of 1 mixed pair_coeff terms from geometric mixing rule
Step          Temp          Press          PotEng        Density         KinEng         TotEng           Lx             Ly             Lz            Xlo            Xhi            Ylo            Yhi            Zlo            Zhi           Volume           Dt            Time           CPU           T/CPU          S/CPU         CPULeft
40860000   369704.12      67.29608      -41202778       0.14790851     1100915.7     -40101862       1679.6042      1679.6042      1679.6042      1160.1979      2839.8021      1160.1979      2839.8021      1160.1979      2839.8021      4.7382812e+09  0.1            4540000        0              0              0              0
Averages over the last 26 of 51 rows, steps 41110000 to 41360000:
Temp Press PotEng Density KinEng TotEng Lx Ly Lz Xlo Xhi Ylo Yhi Zlo Zhi Volume Dt
366534 -28.069 -3.92441e+07 0.147909 1.09148e+06 -3.81526e+07 1679.6 1679.6 1679.6 1160.2 2839.8 1160.2 2839.8 1160.2 2839.8 4.73828e+09 0.1
Loop time of 50.6104 on 4 procs for 500000 steps with 1000 atoms

unfix 3

fix 4 all nvt temp 370000 300 $(100.0*dt)
fix 4 all nvt temp 370000 300 10

run 200000
Generated 0 of 1 mixed pair_coeff terms from geometric mixing rule
Step          Temp          Press          PotEng        Density         KinEng         TotEng           Lx             Ly             Lz            Xlo            Xhi            Ylo            Yhi            Zlo            Zhi           Volume           Dt            Time           CPU           T/CPU          S/CPU         CPULeft
41360000   371341.45     -23.553704     -38344472       0.14790851     1105791.4     -37238681       1679.6042      1679.6042      1679.6042      1160.1979      2839.8021      1160.1979      2839.8021      1160.1979      2839.8021      4.7382812e+09  0.1            4590000        0              0              0              0
Averages over the last 11 of 21 rows, steps 41460000 to 41560000:
Temp Press PotEng Density KinEng TotEng Lx Ly Lz Xlo Xhi Ylo Yhi Zlo Zhi Volume Dt
93295.7 -82.8299 -3.89698e+07 0.147909 277819 -3.86919e+07 1679.6 1679.6 1679.6 1160.2 2839.8 1160.2 2839.8 1160.2 2839.8 4.73828e+09 0.1
Loop time of 19.1109 on 4 procs for 200000 steps with 1000 atoms

unfix 4

fix 5 all npt temp 300 300 $(100.0*dt) iso 1.0 1.0 $(1000.0*dt)
fix 5 all npt temp 300 300 10 iso 1.0 1.0 $(1000.0*dt)
fix 5 all npt temp 300 300 10 iso 1.0 1.0 100

run 300000
Generated 0 of 1 mixed pair_coeff terms from geometric mixing rule
Step          Temp          Press          PotEng        Density         KinEng         TotEng           Lx             Ly             Lz            Xlo            Xhi            Ylo            Yhi            Zlo            Zhi           Volume           Dt            Time           CPU           T/CPU          S/CPU         CPULeft
41560000   521.18345     -101.11343     -39315351       0.14790851     1551.9953     -39313799       1679.6042      1679.6042      1679.6042      1160.1979      2839.8021      1160.1979      2839.8021      1160.1979      2839.8021      4.7382812e+09  0.1            4610000        0              0              0              0
Averages over the last 16 of 31 rows, steps 41710000 to 41860000:
Temp Press PotEng Density KinEng TotEng Lx Ly Lz Xlo Xhi Ylo Yhi Zlo Zhi Volume Dt
311.867 1.00482 -4.03267e+07 0.156846 928.687 -4.03258e+07 1647.08 1647.08 1647.08 1176.46 2823.54 1176.46 2823.54 1176.46 2823.54 4.46834e+09 0.1
Loop time of 34.5849 on 4 procs for 300000 steps with 1000 atoms

# run_style
run_style verlet

# write restart
write_restart ./pgnpmf/0100/equpmf35.res
System init for write_restart ...
Generated 0 of 1 mixed pair_coeff terms from geometric mixing rule
