LAMMPS (23 Jun 2022 - Update 1)
# Read restart
read_restart ./pgnpmf/0100/equpmf43.res
Reading restart file ...
  restart file = 23 Jun 2022, LAMMPS = 23 Jun 2022
  restoring atom style atomic from restart
  orthogonal box = (1297.2507 1297.2507 1297.2507) to (2702.7493 2702.7493 2702.7493)
  restoring pair style table from restart
  1000 atoms
  read_restart CPU = 0.006 seconds

# Settings

pair_style table spline 9941

pair_coeff 1 1 ./pgnpmf/N20.txt DE_GNP 75.6
pair_coeff 2 2 ./pgnpmf/N100.txt DE_GNP 115.92
pair_coeff 1 2 ./pgnpmf/mixed_potential.txt DE_GNP 95.66

#Neigh_list Calc Frequency

neigh_modify delay 0 every 1 check yes

# Saving Frequency (50 frames)

variable ts_save equal 5000

# Dump
#dump_modify 1 first no sort id
dump 2 all cfg 50000 ./pgnpmf/0100/equilibration/trajectory/dumpgen.tens_*.cfg mass type xs ys zs fx fy fz
dump_modify 2 element N20 N100

# thermo_style
thermo_style custom step temp press pe density ke etotal lx ly lz xlo xhi ylo yhi zlo zhi vol dt time cpu tpcpu spcpu cpuremain

# run info
timestep 0.1
thermo 10000

# fix

fix 1 all momentum 1000 linear 1 1 1 angular
variable T equal 300
fix 2 all nvt temp 300 370000 100.0

run 200000
Generated 0 of 1 mixed pair_coeff terms from geometric mixing rule
Unused restart file global fix info:
  fix style: npt, fix ID: 5
  update every 1 steps, delay 0 steps, check yes
Step          Temp          Press          PotEng        Density         KinEng         TotEng           Lx             Ly             Lz            Xlo            Xhi            Ylo            Yhi            Zlo            Zhi           Volume           Dt            Time           CPU           T/CPU          S/CPU         CPULeft
51460000   308.92639      0.84535714    -42383999       0.25241937     919.93003     -42383079       1405.4987      1405.4987      1405.4987      1297.2507      2702.7493      1297.2507      2702.7493      1297.2507      2702.7493      2.7764593e+09  0.1            5600000        0              0              0              0
Averages over the last 11 of 21 rows, steps 51560000 to 51660000:
Temp Press PotEng Density KinEng TotEng Lx Ly Lz Xlo Xhi Ylo Yhi Zlo Zhi Volume Dt
277475 54.1212 -4.30652e+07 0.252419 826272 -4.22389e+07 1405.5 1405.5 1405.5 1297.25 2702.75 1297.25 2702.75 1297.25 2702.75 2.77646e+09 0.1
Loop time of 16.7046 on 4 procs for 200000 steps with 1000 atoms

unfix 2

fix 3 all nvt temp 370000 370000 $(100.0*dt) #iso 1.0 1.0 $(1000.0*dt)
fix 3 all nvt temp 370000 370000 10

run 500000
Generated 0 of 1 mixed pair_coeff terms from geometric mixing rule
Step          Temp          Press          PotEng        Density         KinEng         TotEng           Lx             Ly             Lz            Xlo            Xhi            Ylo            Yhi            Zlo            Zhi           Volume           Dt            Time           CPU           T/CPU          S/CPU         CPULeft
51660000   360175.93      137.23139     -43212372       0.25241937     1072542.4     -42139830       1405.4987      1405.4987      1405.4987      1297.2507      2702.7493      1297.2507      2702.7493      1297.2507      2702.7493      2.7764593e+09  0.1            5620000        0              0              0              0
Averages over the last 26 of 51 rows, steps 51910000 to 52160000:
Temp Press PotEng Density KinEng TotEng Lx Ly Lz Xlo Xhi Ylo Yhi Zlo Zhi Volume Dt
373180 -47.1466 -4.13947e+07 0.252419 1.11127e+06 -4.02835e+07 1405.5 1405.5 1405.5 1297.25 2702.75 1297.25 2702.75 1297.25 2702.75 2.77646e+09 0.1
Loop time of 41.8013 on 4 procs for 500000 steps with 1000 atoms

unfix 3

fix 4 all nvt temp 370000 300 $(100.0*dt)
fix 4 all nvt temp 370000 300 10

run 200000
Generated 0 of 1 mixed pair_coeff terms from geometric mixing rule
Step          Temp          Press          PotEng        Density         KinEng         TotEng           Lx             Ly             Lz            Xlo            Xhi            Ylo            Yhi            Zlo            Zhi           Volume           Dt            Time           CPU           T/CPU          S/CPU         CPULeft
52160000   369832.21     -37.815361     -40554111       0.25241937     1101297.2     -39452813       1405.4987      1405.4987      1405.4987      1297.2507      2702.7493      1297.2507      2702.7493      1297.2507      2702.7493      2.7764593e+09  0.1            5670000        0              0              0              0
Averages over the last 11 of 21 rows, steps 52260000 to 52360000:
Temp Press PotEng Density KinEng TotEng Lx Ly Lz Xlo Xhi Ylo Yhi Zlo Zhi Volume Dt
91545.4 -141.553 -4.10845e+07 0.252419 272607 -4.08119e+07 1405.5 1405.5 1405.5 1297.25 2702.75 1297.25 2702.75 1297.25 2702.75 2.77646e+09 0.1
Loop time of 16.2808 on 4 procs for 200000 steps with 1000 atoms

unfix 4

fix 5 all npt temp 300 300 $(100.0*dt) iso 1.0 1.0 $(1000.0*dt)
fix 5 all npt temp 300 300 10 iso 1.0 1.0 $(1000.0*dt)
fix 5 all npt temp 300 300 10 iso 1.0 1.0 100

run 300000
Generated 0 of 1 mixed pair_coeff terms from geometric mixing rule
Step          Temp          Press          PotEng        Density         KinEng         TotEng           Lx             Ly             Lz            Xlo            Xhi            Ylo            Yhi            Zlo            Zhi           Volume           Dt            Time           CPU           T/CPU          S/CPU         CPULeft
52360000   521.37024     -173.70555     -41444774       0.25241937     1552.5515     -41443221       1405.4987      1405.4987      1405.4987      1297.2507      2702.7493      1297.2507      2702.7493      1297.2507      2702.7493      2.7764593e+09  0.1            5690000        0              0              0              0
Averages over the last 16 of 31 rows, steps 52510000 to 52660000:
Temp Press PotEng Density KinEng TotEng Lx Ly Lz Xlo Xhi Ylo Yhi Zlo Zhi Volume Dt
310.775 0.939051 -4.23151e+07 0.266255 925.436 -4.23142e+07 1380.72 1380.72 1380.72 1309.64 2690.36 1309.64 2690.36 1309.64 2690.36 2.63221e+09 0.1
Loop time of 28.9076 on 4 procs for 300000 steps with 1000 atoms

# run_style
run_style verlet

# write restart
write_restart ./pgnpmf/0100/equpmf44.res
System init for write_restart ...
Generated 0 of 1 mixed pair_coeff terms from geometric mixing rule
