LAMMPS (23 Jun 2022 - Update 1)
# Read restart
read_restart ./pgnpmf/0100/equpmf89.res
Reading restart file ...
  restart file = 23 Jun 2022, LAMMPS = 23 Jun 2022
  restoring atom style atomic from restart
  orthogonal box = (1619.3333 1619.3333 1619.3333) to (2380.6667 2380.6667 2380.6667)
  restoring pair style table from restart
  1000 atoms
  read_restart CPU = 0.003 seconds

# Settings

pair_style table spline 9941

pair_coeff 1 1 ./pgnpmf/N20.txt DE_GNP 75.6
pair_coeff 2 2 ./pgnpmf/N100.txt DE_GNP 115.92
pair_coeff 1 2 ./pgnpmf/mixed_potential.txt DE_GNP 95.66

#Neigh_list Calc Frequency

neigh_modify delay 0 every 1 check yes

# Saving Frequency (50 frames)

variable ts_save equal 50000

variable nts equal 50000/0.1
variable medium equal 500000*3
variable long equal 500000*5

# Dump
#dump_modify 1 first no sort id
dump 2 all cfg 50000 ./pgnpmf/0100/equilibration/trajectory/dumpequ.tens_*.cfg mass type xs ys zs fx fy fz
dump_modify 2 element N20 N100

# thermo_style
thermo_style custom step temp press pe density ke etotal lx ly lz xlo xhi ylo yhi zlo zhi vol dt time cpu tpcpu spcpu cpuremain

# run info
timestep 0.1
thermo 5000

# fix

fix 1 all momentum 1000 linear 1 1 1 angular
variable T equal 300
fix 2 all nvt temp 300 370000 100.0

run 500000
Generated 0 of 1 mixed pair_coeff terms from geometric mixing rule
Unused restart file global fix info:
  fix style: npt, fix ID: 5
  update every 1 steps, delay 0 steps, check yes
Step          Temp          Press          PotEng        Density         KinEng         TotEng           Lx             Ly             Lz            Xlo            Xhi            Ylo            Yhi            Zlo            Zhi           Volume           Dt            Time           CPU           T/CPU          S/CPU         CPULeft
175060000   296.31173     -2.1724995     -62125856       1.5881424      882.36573     -62124974       761.33334      761.33334      761.33334      1619.3333      2380.6667      1619.3333      2380.6667      1619.3333      2380.6667      4.4129047e+08  0.1            17960000       0              0              0              0
Averages over the last 51 of 101 rows, steps 175310000 to 175560000:
Temp Press PotEng Density KinEng TotEng Lx Ly Lz Xlo Xhi Ylo Yhi Zlo Zhi Volume Dt
278147 1364.83 -6.12548e+07 1.58814 828275 -6.04266e+07 761.333 761.333 761.333 1619.33 2380.67 1619.33 2380.67 1619.33 2380.67 4.4129e+08 0.1
Loop time of 29.4323 on 4 procs for 500000 steps with 1000 atoms

unfix 2

fix 3 all nvt temp 370000 370000 $(100.0*dt) #iso 1.0 1.0 $(1000.0*dt)
fix 3 all nvt temp 370000 370000 10

run 2500000
Generated 0 of 1 mixed pair_coeff terms from geometric mixing rule
Step          Temp          Press          PotEng        Density         KinEng         TotEng           Lx             Ly             Lz            Xlo            Xhi            Ylo            Yhi            Zlo            Zhi           Volume           Dt            Time           CPU           T/CPU          S/CPU         CPULeft
175560000   394066.7       1663.5046     -60967398       1.5881424      1173463.3     -59793935       761.33334      761.33334      761.33334      1619.3333      2380.6667      1619.3333      2380.6667      1619.3333      2380.6667      4.4129047e+08  0.1            18010000       0              0              0              0
Averages over the last 251 of 501 rows, steps 176810000 to 178060000:
Temp Press PotEng Density KinEng TotEng Lx Ly Lz Xlo Xhi Ylo Yhi Zlo Zhi Volume Dt
369636 1639.85 -6.10682e+07 1.58814 1.10071e+06 -5.99674e+07 761.333 761.333 761.333 1619.33 2380.67 1619.33 2380.67 1619.33 2380.67 4.4129e+08 0.1
Loop time of 147.553 on 4 procs for 2500000 steps with 1000 atoms

unfix 3

fix 4 all nvt temp 370000 300 100.0

run 500000
Generated 0 of 1 mixed pair_coeff terms from geometric mixing rule
Step          Temp          Press          PotEng        Density         KinEng         TotEng           Lx             Ly             Lz            Xlo            Xhi            Ylo            Yhi            Zlo            Zhi           Volume           Dt            Time           CPU           T/CPU          S/CPU         CPULeft
178060000   373137.16      1732.9763     -61107578       1.5881424      1111138.7     -59996439       761.33334      761.33334      761.33334      1619.3333      2380.6667      1619.3333      2380.6667      1619.3333      2380.6667      4.4129047e+08  0.1            18260000       0              0              0              0
Averages over the last 51 of 101 rows, steps 178310000 to 178560000:
Temp Press PotEng Density KinEng TotEng Lx Ly Lz Xlo Xhi Ylo Yhi Zlo Zhi Volume Dt
93134.6 354.017 -6.19415e+07 1.58814 277339 -6.16642e+07 761.333 761.333 761.333 1619.33 2380.67 1619.33 2380.67 1619.33 2380.67 4.4129e+08 0.1
Loop time of 29.2789 on 4 procs for 500000 steps with 1000 atoms

unfix 4

fix 5 all npt temp 300 300 $(100.0*dt) iso 1.0 1.0 $(1000.0*dt)
fix 5 all npt temp 300 300 10 iso 1.0 1.0 $(1000.0*dt)
fix 5 all npt temp 300 300 10 iso 1.0 1.0 100

run 1500000
Generated 0 of 1 mixed pair_coeff terms from geometric mixing rule
Step          Temp          Press          PotEng        Density         KinEng         TotEng           Lx             Ly             Lz            Xlo            Xhi            Ylo            Yhi            Zlo            Zhi           Volume           Dt            Time           CPU           T/CPU          S/CPU         CPULeft
178560000   1376.4045     -33.36814      -62163236       1.5881424      4098.6974     -62159137       761.33334      761.33334      761.33334      1619.3333      2380.6667      1619.3333      2380.6667      1619.3333      2380.6667      4.4129047e+08  0.1            18310000       0              0              0              0
Averages over the last 151 of 301 rows, steps 179310000 to 180060000:
Temp Press PotEng Density KinEng TotEng Lx Ly Lz Xlo Xhi Ylo Yhi Zlo Zhi Volume Dt
299.459 0.224351 -6.22504e+07 1.59011 891.739 -6.22496e+07 761.019 761.019 761.019 1619.49 2380.51 1619.49 2380.51 1619.49 2380.51 4.40745e+08 0.1
Loop time of 102.961 on 4 procs for 1500000 steps with 1000 atoms

# run_style
run_style verlet

# write restart
write_restart ./pgnpmf/0100/equpmf90.res
System init for write_restart ...
Generated 0 of 1 mixed pair_coeff terms from geometric mixing rule
