LAMMPS (23 Jun 2022 - Update 1)
# Read restart
read_restart ./pgnpmf/0100/equpmf29.res
Reading restart file ...
  restart file = 23 Jun 2022, LAMMPS = 23 Jun 2022
  restoring atom style atomic from restart
  orthogonal box = (1067.5043 1067.5043 1067.5043) to (2932.4957 2932.4957 2932.4957)
  restoring pair style table from restart
  1000 atoms
  read_restart CPU = 0.006 seconds

# Settings

pair_style table spline 9941

pair_coeff 1 1 ./pgnpmf/N20.txt DE_GNP 75.6
pair_coeff 2 2 ./pgnpmf/N100.txt DE_GNP 115.92
pair_coeff 1 2 ./pgnpmf/mixed_potential.txt DE_GNP 95.66

#Neigh_list Calc Frequency

neigh_modify delay 0 every 1 check yes

# Saving Frequency (50 frames)

variable ts_save equal 5000

# Dump
#dump_modify 1 first no sort id
dump 2 all cfg 50000 ./pgnpmf/0100/equilibration/trajectory/dumpgen.tens_*.cfg mass type xs ys zs fx fy fz
dump_modify 2 element N20 N100

# thermo_style
thermo_style custom step temp press pe density ke etotal lx ly lz xlo xhi ylo yhi zlo zhi vol dt time cpu tpcpu spcpu cpuremain

# run info
timestep 0.1
thermo 10000

# fix

fix 1 all momentum 1000 linear 1 1 1 angular
variable T equal 300
fix 2 all nvt temp 300 370000 100.0

run 200000
Generated 0 of 1 mixed pair_coeff terms from geometric mixing rule
Unused restart file global fix info:
  fix style: npt, fix ID: 5
  update every 1 steps, delay 0 steps, check yes
Step          Temp          Press          PotEng        Density         KinEng         TotEng           Lx             Ly             Lz            Xlo            Xhi            Ylo            Yhi            Zlo            Zhi           Volume           Dt            Time           CPU           T/CPU          S/CPU         CPULeft
34660000   310.13095      1.1012436     -38498764       0.10803973     923.51701     -38497841       1864.9914      1864.9914      1864.9914      1067.5043      2932.4957      1067.5043      2932.4957      1067.5043      2932.4957      6.4867999e+09  0.1            3920000        0              0              0              0
Averages over the last 11 of 21 rows, steps 34760000 to 34860000:
Temp Press PotEng Density KinEng TotEng Lx Ly Lz Xlo Xhi Ylo Yhi Zlo Zhi Volume Dt
275365 13.3168 -3.91297e+07 0.10804 819990 -3.83098e+07 1864.99 1864.99 1864.99 1067.5 2932.5 1067.5 2932.5 1067.5 2932.5 6.4868e+09 0.1
Loop time of 17.9835 on 4 procs for 200000 steps with 1000 atoms

unfix 2

fix 3 all nvt temp 370000 370000 $(100.0*dt) #iso 1.0 1.0 $(1000.0*dt)
fix 3 all nvt temp 370000 370000 10

run 500000
Generated 0 of 1 mixed pair_coeff terms from geometric mixing rule
Step          Temp          Press          PotEng        Density         KinEng         TotEng           Lx             Ly             Lz            Xlo            Xhi            Ylo            Yhi            Zlo            Zhi           Volume           Dt            Time           CPU           T/CPU          S/CPU         CPULeft
34860000   375844.62      45.058014     -39498426       0.10803973     1119201.1     -38379225       1864.9914      1864.9914      1864.9914      1067.5043      2932.4957      1067.5043      2932.4957      1067.5043      2932.4957      6.4867999e+09  0.1            3940000        0              0              0              0
Averages over the last 26 of 51 rows, steps 35110000 to 35360000:
Temp Press PotEng Density KinEng TotEng Lx Ly Lz Xlo Xhi Ylo Yhi Zlo Zhi Volume Dt
371048 -16.2829 -3.77618e+07 0.10804 1.10492e+06 -3.66569e+07 1864.99 1864.99 1864.99 1067.5 2932.5 1067.5 2932.5 1067.5 2932.5 6.4868e+09 0.1
Loop time of 44.9319 on 4 procs for 500000 steps with 1000 atoms

unfix 3

fix 4 all nvt temp 370000 300 $(100.0*dt)
fix 4 all nvt temp 370000 300 10

run 200000
Generated 0 of 1 mixed pair_coeff terms from geometric mixing rule
Step          Temp          Press          PotEng        Density         KinEng         TotEng           Lx             Ly             Lz            Xlo            Xhi            Ylo            Yhi            Zlo            Zhi           Volume           Dt            Time           CPU           T/CPU          S/CPU         CPULeft
35360000   370384.29     -14.697128     -36967699       0.10803973     1102941.2     -35864758       1864.9914      1864.9914      1864.9914      1067.5043      2932.4957      1067.5043      2932.4957      1067.5043      2932.4957      6.4867999e+09  0.1            3990000        0              0              0              0
Averages over the last 11 of 21 rows, steps 35460000 to 35560000:
Temp Press PotEng Density KinEng TotEng Lx Ly Lz Xlo Xhi Ylo Yhi Zlo Zhi Volume Dt
91954.6 -57.3101 -3.74572e+07 0.10804 273825 -3.71833e+07 1864.99 1864.99 1864.99 1067.5 2932.5 1067.5 2932.5 1067.5 2932.5 6.4868e+09 0.1
Loop time of 17.1655 on 4 procs for 200000 steps with 1000 atoms

unfix 4

fix 5 all npt temp 300 300 $(100.0*dt) iso 1.0 1.0 $(1000.0*dt)
fix 5 all npt temp 300 300 10 iso 1.0 1.0 $(1000.0*dt)
fix 5 all npt temp 300 300 10 iso 1.0 1.0 100

run 300000
Generated 0 of 1 mixed pair_coeff terms from geometric mixing rule
Step          Temp          Press          PotEng        Density         KinEng         TotEng           Lx             Ly             Lz            Xlo            Xhi            Ylo            Yhi            Zlo            Zhi           Volume           Dt            Time           CPU           T/CPU          S/CPU         CPULeft
35560000   520.74203     -71.585282     -37887117       0.10803973     1550.6808     -37885566       1864.9914      1864.9914      1864.9914      1067.5043      2932.4957      1067.5043      2932.4957      1067.5043      2932.4957      6.4867999e+09  0.1            4010000        0              0              0              0
Averages over the last 16 of 31 rows, steps 35710000 to 35860000:
Temp Press PotEng Density KinEng TotEng Lx Ly Lz Xlo Xhi Ylo Yhi Zlo Zhi Volume Dt
311.221 0.966603 -3.88783e+07 0.114522 926.764 -3.88774e+07 1829.12 1829.12 1829.12 1085.44 2914.56 1085.44 2914.56 1085.44 2914.56 6.11966e+09 0.1
Loop time of 32.3303 on 4 procs for 300000 steps with 1000 atoms

# run_style
run_style verlet

# write restart
write_restart ./pgnpmf/0100/equpmf30.res
System init for write_restart ...
Generated 0 of 1 mixed pair_coeff terms from geometric mixing rule
