LAMMPS (23 Jun 2022 - Update 1)
# Read restart
read_restart ./pgnpmf/0100/equpmf95.res
Reading restart file ...
  restart file = 23 Jun 2022, LAMMPS = 23 Jun 2022
  restoring atom style atomic from restart
  orthogonal box = (1619.5901 1619.5901 1619.5901) to (2380.4099 2380.4099 2380.4099)
  restoring pair style table from restart
  1000 atoms
  read_restart CPU = 0.003 seconds

# Settings

pair_style table spline 9941

pair_coeff 1 1 ./pgnpmf/N20.txt DE_GNP 75.6
pair_coeff 2 2 ./pgnpmf/N100.txt DE_GNP 115.92
pair_coeff 1 2 ./pgnpmf/mixed_potential.txt DE_GNP 95.66

#Neigh_list Calc Frequency

neigh_modify delay 0 every 1 check yes

# Saving Frequency (50 frames)

variable ts_save equal 50000

variable nts equal 50000/0.1
variable medium equal 500000*3
variable long equal 500000*5

# Dump
#dump_modify 1 first no sort id
dump 2 all cfg 50000 ./pgnpmf/0100/equilibration/trajectory/dumpequ.tens_*.cfg mass type xs ys zs fx fy fz
dump_modify 2 element N20 N100

# thermo_style
thermo_style custom step temp press pe density ke etotal lx ly lz xlo xhi ylo yhi zlo zhi vol dt time cpu tpcpu spcpu cpuremain

# run info
timestep 0.1
thermo 5000

# fix

fix 1 all momentum 1000 linear 1 1 1 angular
variable T equal 300
fix 2 all nvt temp 300 370000 100.0

run 500000
Generated 0 of 1 mixed pair_coeff terms from geometric mixing rule
Unused restart file global fix info:
  fix style: npt, fix ID: 5
  update every 1 steps, delay 0 steps, check yes
Step          Temp          Press          PotEng        Density         KinEng         TotEng           Lx             Ly             Lz            Xlo            Xhi            Ylo            Yhi            Zlo            Zhi           Volume           Dt            Time           CPU           T/CPU          S/CPU         CPULeft
205060000   295.09572     -3.3476929     -62153337       1.5913609      878.74465     -62152458       760.81973      760.81973      760.81973      1619.5901      2380.4099      1619.5901      2380.4099      1619.5901      2380.4099      4.4039796e+08  0.1            20960000       0              0              0              0
Averages over the last 51 of 101 rows, steps 205310000 to 205560000:
Temp Press PotEng Density KinEng TotEng Lx Ly Lz Xlo Xhi Ylo Yhi Zlo Zhi Volume Dt
276659 1407.08 -6.12839e+07 1.59136 823845 -6.046e+07 760.82 760.82 760.82 1619.59 2380.41 1619.59 2380.41 1619.59 2380.41 4.40398e+08 0.1
Loop time of 28.4193 on 4 procs for 500000 steps with 1000 atoms

unfix 2

fix 3 all nvt temp 370000 370000 $(100.0*dt) #iso 1.0 1.0 $(1000.0*dt)
fix 3 all nvt temp 370000 370000 10

run 2500000
Generated 0 of 1 mixed pair_coeff terms from geometric mixing rule
Step          Temp          Press          PotEng        Density         KinEng         TotEng           Lx             Ly             Lz            Xlo            Xhi            Ylo            Yhi            Zlo            Zhi           Volume           Dt            Time           CPU           T/CPU          S/CPU         CPULeft
205560000   368910.35      1733.6402     -61077397       1.5913609      1098552       -59978845       760.81973      760.81973      760.81973      1619.5901      2380.4099      1619.5901      2380.4099      1619.5901      2380.4099      4.4039796e+08  0.1            21010000       0              0              0              0
Averages over the last 251 of 501 rows, steps 206810000 to 208060000:
Temp Press PotEng Density KinEng TotEng Lx Ly Lz Xlo Xhi Ylo Yhi Zlo Zhi Volume Dt
368620 1692.92 -6.10408e+07 1.59136 1.09769e+06 -5.99431e+07 760.82 760.82 760.82 1619.59 2380.41 1619.59 2380.41 1619.59 2380.41 4.40398e+08 0.1
Loop time of 142.157 on 4 procs for 2500000 steps with 1000 atoms

unfix 3

fix 4 all nvt temp 370000 300 100.0

run 500000
Generated 0 of 1 mixed pair_coeff terms from geometric mixing rule
Step          Temp          Press          PotEng        Density         KinEng         TotEng           Lx             Ly             Lz            Xlo            Xhi            Ylo            Yhi            Zlo            Zhi           Volume           Dt            Time           CPU           T/CPU          S/CPU         CPULeft
208060000   375841.23      1718.9535     -61068194       1.5913609      1119191       -59949003       760.81973      760.81973      760.81973      1619.5901      2380.4099      1619.5901      2380.4099      1619.5901      2380.4099      4.4039796e+08  0.1            21260000       0              0              0              0
Averages over the last 51 of 101 rows, steps 208310000 to 208560000:
Temp Press PotEng Density KinEng TotEng Lx Ly Lz Xlo Xhi Ylo Yhi Zlo Zhi Volume Dt
93115.8 418.164 -6.18362e+07 1.59136 277283 -6.15589e+07 760.82 760.82 760.82 1619.59 2380.41 1619.59 2380.41 1619.59 2380.41 4.40398e+08 0.1
Loop time of 28.2631 on 4 procs for 500000 steps with 1000 atoms

unfix 4

fix 5 all npt temp 300 300 $(100.0*dt) iso 1.0 1.0 $(1000.0*dt)
fix 5 all npt temp 300 300 10 iso 1.0 1.0 $(1000.0*dt)
fix 5 all npt temp 300 300 10 iso 1.0 1.0 100

run 1500000
Generated 0 of 1 mixed pair_coeff terms from geometric mixing rule
Step          Temp          Press          PotEng        Density         KinEng         TotEng           Lx             Ly             Lz            Xlo            Xhi            Ylo            Yhi            Zlo            Zhi           Volume           Dt            Time           CPU           T/CPU          S/CPU         CPULeft
208560000   1381.0112      38.225803     -62057502       1.5913609      4112.4154     -62053390       760.81973      760.81973      760.81973      1619.5901      2380.4099      1619.5901      2380.4099      1619.5901      2380.4099      4.4039796e+08  0.1            21310000       0              0              0              0
Averages over the last 151 of 301 rows, steps 209310000 to 210060000:
Temp Press PotEng Density KinEng TotEng Lx Ly Lz Xlo Xhi Ylo Yhi Zlo Zhi Volume Dt
300.224 0.515092 -6.2245e+07 1.59109 894.015 -6.22441e+07 760.864 760.864 760.864 1619.57 2380.43 1619.57 2380.43 1619.57 2380.43 4.40474e+08 0.1
Loop time of 100.733 on 4 procs for 1500000 steps with 1000 atoms

# run_style
run_style verlet

# write restart
write_restart ./pgnpmf/0100/equpmf96.res
System init for write_restart ...
Generated 0 of 1 mixed pair_coeff terms from geometric mixing rule
