LAMMPS (23 Jun 2022 - Update 1)
# Read restart
read_restart ./pgnpmf/0100/equpmf84.res
Reading restart file ...
  restart file = 23 Jun 2022, LAMMPS = 23 Jun 2022
  restoring atom style atomic from restart
  orthogonal box = (1618.9142 1618.9142 1618.9142) to (2381.0858 2381.0858 2381.0858)
  restoring pair style table from restart
  1000 atoms
  read_restart CPU = 0.004 seconds

# Settings

pair_style table spline 9941

pair_coeff 1 1 ./pgnpmf/N20.txt DE_GNP 75.6
pair_coeff 2 2 ./pgnpmf/N100.txt DE_GNP 115.92
pair_coeff 1 2 ./pgnpmf/mixed_potential.txt DE_GNP 95.66

#Neigh_list Calc Frequency

neigh_modify delay 0 every 1 check yes

# Saving Frequency (50 frames)

variable ts_save equal 50000

variable nts equal 50000/0.1
variable medium equal 500000*3
variable long equal 500000*5

# Dump
#dump_modify 1 first no sort id
dump 2 all cfg 50000 ./pgnpmf/0100/equilibration/trajectory/dumpequ.tens_*.cfg mass type xs ys zs fx fy fz
dump_modify 2 element N20 N100

# thermo_style
thermo_style custom step temp press pe density ke etotal lx ly lz xlo xhi ylo yhi zlo zhi vol dt time cpu tpcpu spcpu cpuremain

# run info
timestep 0.1
thermo 5000

# fix

fix 1 all momentum 1000 linear 1 1 1 angular
variable T equal 300
fix 2 all nvt temp 300 370000 100.0

run 500000
Generated 0 of 1 mixed pair_coeff terms from geometric mixing rule
Unused restart file global fix info:
  fix style: npt, fix ID: 5
  update every 1 steps, delay 0 steps, check yes
Step          Temp          Press          PotEng        Density         KinEng         TotEng           Lx             Ly             Lz            Xlo            Xhi            Ylo            Yhi            Zlo            Zhi           Volume           Dt            Time           CPU           T/CPU          S/CPU         CPULeft
150060000   289.12739      3.1302504     -61974640       1.5829082      860.97199     -61973779       762.17158      762.17158      762.17158      1618.9142      2381.0858      1618.9142      2381.0858      1618.9142      2381.0858      4.4274968e+08  0.1            15460000       0              0              0              0
Averages over the last 51 of 101 rows, steps 150310000 to 150560000:
Temp Press PotEng Density KinEng TotEng Lx Ly Lz Xlo Xhi Ylo Yhi Zlo Zhi Volume Dt
277162 1357.23 -6.1066e+07 1.58291 825340 -6.02407e+07 762.172 762.172 762.172 1618.91 2381.09 1618.91 2381.09 1618.91 2381.09 4.4275e+08 0.1
Loop time of 28.6915 on 4 procs for 500000 steps with 1000 atoms

unfix 2

fix 3 all nvt temp 370000 370000 $(100.0*dt) #iso 1.0 1.0 $(1000.0*dt)
fix 3 all nvt temp 370000 370000 10

run 2500000
Generated 0 of 1 mixed pair_coeff terms from geometric mixing rule
Step          Temp          Press          PotEng        Density         KinEng         TotEng           Lx             Ly             Lz            Xlo            Xhi            Ylo            Yhi            Zlo            Zhi           Volume           Dt            Time           CPU           T/CPU          S/CPU         CPULeft
150560000   367527.62      1609.7345     -60985574       1.5829082      1094434.5     -59891140       762.17158      762.17158      762.17158      1618.9142      2381.0858      1618.9142      2381.0858      1618.9142      2381.0858      4.4274968e+08  0.1            15510000       0              0              0              0
Averages over the last 251 of 501 rows, steps 151810000 to 153060000:
Temp Press PotEng Density KinEng TotEng Lx Ly Lz Xlo Xhi Ylo Yhi Zlo Zhi Volume Dt
369818 1602.44 -6.08728e+07 1.58291 1.10126e+06 -5.97716e+07 762.172 762.172 762.172 1618.91 2381.09 1618.91 2381.09 1618.91 2381.09 4.4275e+08 0.1
Loop time of 141.784 on 4 procs for 2500000 steps with 1000 atoms

unfix 3

fix 4 all nvt temp 370000 300 100.0

run 500000
Generated 0 of 1 mixed pair_coeff terms from geometric mixing rule
Step          Temp          Press          PotEng        Density         KinEng         TotEng           Lx             Ly             Lz            Xlo            Xhi            Ylo            Yhi            Zlo            Zhi           Volume           Dt            Time           CPU           T/CPU          S/CPU         CPULeft
153060000   368467.97      1695.6175     -60699898       1.5829082      1097234.7     -59602664       762.17158      762.17158      762.17158      1618.9142      2381.0858      1618.9142      2381.0858      1618.9142      2381.0858      4.4274968e+08  0.1            15760000       0              0              0              0
Averages over the last 51 of 101 rows, steps 153310000 to 153560000:
Temp Press PotEng Density KinEng TotEng Lx Ly Lz Xlo Xhi Ylo Yhi Zlo Zhi Volume Dt
93085.5 346.968 -6.15743e+07 1.58291 277193 -6.12971e+07 762.172 762.172 762.172 1618.91 2381.09 1618.91 2381.09 1618.91 2381.09 4.4275e+08 0.1
Loop time of 28.0842 on 4 procs for 500000 steps with 1000 atoms

unfix 4

fix 5 all npt temp 300 300 $(100.0*dt) iso 1.0 1.0 $(1000.0*dt)
fix 5 all npt temp 300 300 10 iso 1.0 1.0 $(1000.0*dt)
fix 5 all npt temp 300 300 10 iso 1.0 1.0 100

run 1500000
Generated 0 of 1 mixed pair_coeff terms from geometric mixing rule
Step          Temp          Press          PotEng        Density         KinEng         TotEng           Lx             Ly             Lz            Xlo            Xhi            Ylo            Yhi            Zlo            Zhi           Volume           Dt            Time           CPU           T/CPU          S/CPU         CPULeft
153560000   1384.1494     -41.269144     -61887955       1.5829082      4121.7606     -61883834       762.17158      762.17158      762.17158      1618.9142      2381.0858      1618.9142      2381.0858      1618.9142      2381.0858      4.4274968e+08  0.1            15810000       0              0              0              0
Averages over the last 151 of 301 rows, steps 154310000 to 155060000:
Temp Press PotEng Density KinEng TotEng Lx Ly Lz Xlo Xhi Ylo Yhi Zlo Zhi Volume Dt
298.33 0.856197 -6.19683e+07 1.58476 888.377 -6.19675e+07 761.874 761.874 761.874 1619.06 2380.94 1619.06 2380.94 1619.06 2380.94 4.42232e+08 0.1
Loop time of 99.9851 on 4 procs for 1500000 steps with 1000 atoms

# run_style
run_style verlet

# write restart
write_restart ./pgnpmf/0100/equpmf85.res
System init for write_restart ...
Generated 0 of 1 mixed pair_coeff terms from geometric mixing rule
