LAMMPS (23 Jun 2022 - Update 1)
# Read restart
read_restart ./pgnpmf/0100/equpmf25.res
Reading restart file ...
  restart file = 23 Jun 2022, LAMMPS = 23 Jun 2022
  restoring atom style atomic from restart
  orthogonal box = (983.5045 983.5045 983.5045) to (3016.4955 3016.4955 3016.4955)
  restoring pair style table from restart
  1000 atoms
  read_restart CPU = 0.007 seconds

# Settings

pair_style table spline 9941

pair_coeff 1 1 ./pgnpmf/N20.txt DE_GNP 75.6
pair_coeff 2 2 ./pgnpmf/N100.txt DE_GNP 115.92
pair_coeff 1 2 ./pgnpmf/mixed_potential.txt DE_GNP 95.66

#Neigh_list Calc Frequency

neigh_modify delay 0 every 1 check yes

# Saving Frequency (50 frames)

variable ts_save equal 5000

# Dump
#dump_modify 1 first no sort id
dump 2 all cfg 50000 ./pgnpmf/0100/equilibration/trajectory/dumpgen.tens_*.cfg mass type xs ys zs fx fy fz
dump_modify 2 element N20 N100

# thermo_style
thermo_style custom step temp press pe density ke etotal lx ly lz xlo xhi ylo yhi zlo zhi vol dt time cpu tpcpu spcpu cpuremain

# run info
timestep 0.1
thermo 10000

# fix

fix 1 all momentum 1000 linear 1 1 1 angular
variable T equal 300
fix 2 all nvt temp 300 370000 100.0

run 200000
Generated 0 of 1 mixed pair_coeff terms from geometric mixing rule
Unused restart file global fix info:
  fix style: npt, fix ID: 5
  update every 1 steps, delay 0 steps, check yes
Step          Temp          Press          PotEng        Density         KinEng         TotEng           Lx             Ly             Lz            Xlo            Xhi            Ylo            Yhi            Zlo            Zhi           Volume           Dt            Time           CPU           T/CPU          S/CPU         CPULeft
29860000   310.77009      1.0822707     -36400305       0.083407983    925.42027     -36399380       2032.991       2032.991       2032.991       983.5045       3016.4955      983.5045       3016.4955      983.5045       3016.4955      8.4024584e+09  0.1            3440000        0              0              0              0
Averages over the last 11 of 21 rows, steps 29960000 to 30060000:
Temp Press PotEng Density KinEng TotEng Lx Ly Lz Xlo Xhi Ylo Yhi Zlo Zhi Volume Dt
278733 10.8934 -3.72021e+07 0.083408 830019 -3.63721e+07 2032.99 2032.99 2032.99 983.505 3016.5 983.505 3016.5 983.505 3016.5 8.40246e+09 0.1
Loop time of 20.5165 on 4 procs for 200000 steps with 1000 atoms

unfix 2

fix 3 all nvt temp 370000 370000 $(100.0*dt) #iso 1.0 1.0 $(1000.0*dt)
fix 3 all nvt temp 370000 370000 10

run 500000
Generated 0 of 1 mixed pair_coeff terms from geometric mixing rule
Step          Temp          Press          PotEng        Density         KinEng         TotEng           Lx             Ly             Lz            Xlo            Xhi            Ylo            Yhi            Zlo            Zhi           Volume           Dt            Time           CPU           T/CPU          S/CPU         CPULeft
30060000   377351.72      34.110818     -37669719       0.083407983    1123689       -36546030       2032.991       2032.991       2032.991       983.5045       3016.4955      983.5045       3016.4955      983.5045       3016.4955      8.4024584e+09  0.1            3460000        0              0              0              0
Averages over the last 26 of 51 rows, steps 30310000 to 30560000:
Temp Press PotEng Density KinEng TotEng Lx Ly Lz Xlo Xhi Ylo Yhi Zlo Zhi Volume Dt
370652 -10.7056 -3.6336e+07 0.083408 1.10374e+06 -3.52323e+07 2032.99 2032.99 2032.99 983.504 3016.5 983.504 3016.5 983.504 3016.5 8.40246e+09 0.1
Loop time of 51.4798 on 4 procs for 500000 steps with 1000 atoms

unfix 3

fix 4 all nvt temp 370000 300 $(100.0*dt)
fix 4 all nvt temp 370000 300 10

run 200000
Generated 0 of 1 mixed pair_coeff terms from geometric mixing rule
Step          Temp          Press          PotEng        Density         KinEng         TotEng           Lx             Ly             Lz            Xlo            Xhi            Ylo            Yhi            Zlo            Zhi           Volume           Dt            Time           CPU           T/CPU          S/CPU         CPULeft
30560000   371832.39     -5.7365534     -35539646       0.083407983    1107253.4     -34432392       2032.991       2032.991       2032.991       983.5045       3016.4955      983.5045       3016.4955      983.5045       3016.4955      8.4024584e+09  0.1            3510000        0              0              0              0
Averages over the last 11 of 21 rows, steps 30660000 to 30760000:
Temp Press PotEng Density KinEng TotEng Lx Ly Lz Xlo Xhi Ylo Yhi Zlo Zhi Volume Dt
92688.7 -42.7126 -3.60648e+07 0.083408 276011 -3.57888e+07 2032.99 2032.99 2032.99 983.505 3016.5 983.505 3016.5 983.505 3016.5 8.40246e+09 0.1
Loop time of 20.0484 on 4 procs for 200000 steps with 1000 atoms

unfix 4

fix 5 all npt temp 300 300 $(100.0*dt) iso 1.0 1.0 $(1000.0*dt)
fix 5 all npt temp 300 300 10 iso 1.0 1.0 $(1000.0*dt)
fix 5 all npt temp 300 300 10 iso 1.0 1.0 100

run 300000
Generated 0 of 1 mixed pair_coeff terms from geometric mixing rule
Step          Temp          Press          PotEng        Density         KinEng         TotEng           Lx             Ly             Lz            Xlo            Xhi            Ylo            Yhi            Zlo            Zhi           Volume           Dt            Time           CPU           T/CPU          S/CPU         CPULeft
30760000   521.42477     -54.87181      -36409445       0.083407983    1552.7139     -36407893       2032.991       2032.991       2032.991       983.5045       3016.4955      983.5045       3016.4955      983.5045       3016.4955      8.4024584e+09  0.1            3530000        0              0              0              0
Averages over the last 16 of 31 rows, steps 30910000 to 31060000:
Temp Press PotEng Density KinEng TotEng Lx Ly Lz Xlo Xhi Ylo Yhi Zlo Zhi Volume Dt
312.094 0.961527 -3.74445e+07 0.0887834 929.362 -3.74435e+07 1991.11 1991.11 1991.11 1004.45 2995.55 1004.45 2995.55 1004.45 2995.55 7.89381e+09 0.1
Loop time of 36.9699 on 4 procs for 300000 steps with 1000 atoms

# run_style
run_style verlet

# write restart
write_restart ./pgnpmf/0100/equpmf26.res
System init for write_restart ...
Generated 0 of 1 mixed pair_coeff terms from geometric mixing rule
