LAMMPS (23 Jun 2022 - Update 1)
# Read restart
read_restart ./pgnpmf/73/equpmf59.res
Reading restart file ...
  restart file = 23 Jun 2022, LAMMPS = 23 Jun 2022
  restoring atom style atomic from restart
  orthogonal box = (2202.1554 2202.1554 2202.1554) to (2797.8446 2797.8446 2797.8446)
  restoring pair style table from restart
  996 atoms
  read_restart CPU = 0.004 seconds

# Settings

pair_style table spline 9941

pair_coeff 1 1 ./pgnpmf/N20.txt DE_GNP 75.6
pair_coeff 2 2 ./pgnpmf/N100.txt DE_GNP 115.92
pair_coeff 1 2 ./pgnpmf/mixed_potential.txt DE_GNP 95.66

#Neigh_list Calc Frequency

neigh_modify delay 0 every 1 check yes

# Saving Frequency (50 frames)

variable ts_save equal 5000

# Dump
#dump_modify 1 first no sort id
#dump 2 all cfg 50000 ./equilibration/trajectory/ovito/dumpgen.tens_*.cfg mass type xs ys zs fx fy fz

# thermo_style
thermo_style custom step temp press pe density ke etotal lx ly lz xlo xhi ylo yhi zlo zhi vol dt time cpu tpcpu spcpu cpuremain

# run info
timestep 0.5
thermo 200

# fix

fix 1 all momentum 1000 linear 1 1 1 angular
variable T equal 300
fix 2 all nvt temp 300 370000 100.0

run 100000
Generated 0 of 1 mixed pair_coeff terms from geometric mixing rule
Unused restart file global fix info:
  fix style: npt, fix ID: 5
  update every 1 steps, delay 0 steps, check yes
Step          Temp          Press          PotEng        Density         KinEng         TotEng           Lx             Ly             Lz            Xlo            Xhi            Ylo            Yhi            Zlo            Zhi           Volume           Dt            Time           CPU           T/CPU          S/CPU         CPULeft
41305000   305.76948     -2.8242154     -21589697       2.2013709      906.88354     -21588790       595.68926      595.68926      595.68926      2202.1554      2797.8446      2202.1554      2797.8446      2202.1554      2797.8446      2.1137777e+08  0.5            20655000       0              0              0              0
Averages over the last 251 of 501 rows, steps 41355000 to 41405000:
Temp Press PotEng Density KinEng TotEng Lx Ly Lz Xlo Xhi Ylo Yhi Zlo Zhi Volume Dt
277000 2917.3 -2.08185e+07 2.20137 821555 -1.9997e+07 595.689 595.689 595.689 2202.16 2797.84 2202.16 2797.84 2202.16 2797.84 2.11378e+08 0.5
Loop time of 9.54577 on 4 procs for 100000 steps with 996 atoms

unfix 2

fix 3 all nvt temp 370000 370000 $(100.0*dt) #iso 1.0 1.0 $(1000.0*dt)
fix 3 all nvt temp 370000 370000 50

run 200000
Generated 0 of 1 mixed pair_coeff terms from geometric mixing rule
Step          Temp          Press          PotEng        Density         KinEng         TotEng           Lx             Ly             Lz            Xlo            Xhi            Ylo            Yhi            Zlo            Zhi           Volume           Dt            Time           CPU           T/CPU          S/CPU         CPULeft
41405000   373751.3       3687.0396     -20565478       2.2013709      1108511.2     -19456967       595.68926      595.68926      595.68926      2202.1554      2797.8446      2202.1554      2797.8446      2202.1554      2797.8446      2.1137777e+08  0.5            20705000       0              0              0              0
Averages over the last 501 of 1001 rows, steps 41505000 to 41605000:
Temp Press PotEng Density KinEng TotEng Lx Ly Lz Xlo Xhi Ylo Yhi Zlo Zhi Volume Dt
369824 3664.79 -2.05844e+07 2.20137 1.09686e+06 -1.94875e+07 595.689 595.689 595.689 2202.16 2797.84 2202.16 2797.84 2202.16 2797.84 2.11378e+08 0.5
Loop time of 19.5283 on 4 procs for 200000 steps with 996 atoms

unfix 3

fix 4 all nvt temp 370000 300 100.0

run 100000
Generated 0 of 1 mixed pair_coeff terms from geometric mixing rule
Step          Temp          Press          PotEng        Density         KinEng         TotEng           Lx             Ly             Lz            Xlo            Xhi            Ylo            Yhi            Zlo            Zhi           Volume           Dt            Time           CPU           T/CPU          S/CPU         CPULeft
41605000   376290.66      3806.4158     -20482794       2.2013709      1116042.7     -19366751       595.68926      595.68926      595.68926      2202.1554      2797.8446      2202.1554      2797.8446      2202.1554      2797.8446      2.1137777e+08  0.5            20805000       0              0              0              0
Averages over the last 251 of 501 rows, steps 41655000 to 41705000:
Temp Press PotEng Density KinEng TotEng Lx Ly Lz Xlo Xhi Ylo Yhi Zlo Zhi Volume Dt
93004.3 1072.75 -2.12598e+07 2.20137 275842 -2.0984e+07 595.689 595.689 595.689 2202.16 2797.84 2202.16 2797.84 2202.16 2797.84 2.11378e+08 0.5
Loop time of 9.57506 on 4 procs for 100000 steps with 996 atoms

unfix 4

fix 5 all npt temp 300 300 $(100.0*dt) iso 1.0 1.0 $(1000.0*dt)
fix 5 all npt temp 300 300 50 iso 1.0 1.0 $(1000.0*dt)
fix 5 all npt temp 300 300 50 iso 1.0 1.0 500

run 300000
Generated 0 of 1 mixed pair_coeff terms from geometric mixing rule
Step          Temp          Press          PotEng        Density         KinEng         TotEng           Lx             Ly             Lz            Xlo            Xhi            Ylo            Yhi            Zlo            Zhi           Volume           Dt            Time           CPU           T/CPU          S/CPU         CPULeft
41705000   1401.4788      144.73709     -21527138       2.2013709      4156.6544     -21522982       595.68926      595.68926      595.68926      2202.1554      2797.8446      2202.1554      2797.8446      2202.1554      2797.8446      2.1137777e+08  0.5            20855000       0              0              0              0
Averages over the last 751 of 1501 rows, steps 41855000 to 42005000:
Temp Press PotEng Density KinEng TotEng Lx Ly Lz Xlo Xhi Ylo Yhi Zlo Zhi Volume Dt
300.149 0.753389 -2.15751e+07 2.20064 890.213 -2.15742e+07 595.755 595.755 595.755 2202.12 2797.88 2202.12 2797.88 2202.12 2797.88 2.11448e+08 0.5
Loop time of 32.7952 on 4 procs for 300000 steps with 996 atoms

# run_style
run_style verlet

# write restart
write_restart ./pgnpmf/73/equpmf60.res
System init for write_restart ...
Generated 0 of 1 mixed pair_coeff terms from geometric mixing rule
