LAMMPS (23 Jun 2022 - Update 1)
# Read restart
read_restart ./pgnpmf/73/equpmf47.res
Reading restart file ...
  restart file = 23 Jun 2022, LAMMPS = 23 Jun 2022
  restoring atom style atomic from restart
  orthogonal box = (2202.4405 2202.4405 2202.4405) to (2797.5595 2797.5595 2797.5595)
  restoring pair style table from restart
  996 atoms
  read_restart CPU = 0.004 seconds

# Settings

pair_style table spline 9941

pair_coeff 1 1 ./pgnpmf/N20.txt DE_GNP 75.6
pair_coeff 2 2 ./pgnpmf/N100.txt DE_GNP 115.92
pair_coeff 1 2 ./pgnpmf/mixed_potential.txt DE_GNP 95.66

#Neigh_list Calc Frequency

neigh_modify delay 0 every 1 check yes

# Saving Frequency (50 frames)

variable ts_save equal 5000

# Dump
#dump_modify 1 first no sort id
#dump 2 all cfg 50000 ./equilibration/trajectory/ovito/dumpgen.tens_*.cfg mass type xs ys zs fx fy fz

# thermo_style
thermo_style custom step temp press pe density ke etotal lx ly lz xlo xhi ylo yhi zlo zhi vol dt time cpu tpcpu spcpu cpuremain

# run info
timestep 0.5
thermo 200

# fix

fix 1 all momentum 1000 linear 1 1 1 angular
variable T equal 300
fix 2 all nvt temp 300 370000 100.0

run 100000
Generated 0 of 1 mixed pair_coeff terms from geometric mixing rule
Unused restart file global fix info:
  fix style: npt, fix ID: 5
  update every 1 steps, delay 0 steps, check yes
Step          Temp          Press          PotEng        Density         KinEng         TotEng           Lx             Ly             Lz            Xlo            Xhi            Ylo            Yhi            Zlo            Zhi           Volume           Dt            Time           CPU           T/CPU          S/CPU         CPULeft
32905000   310.4161      -4.8868274     -21570511       2.2077046      920.66496     -21569590       595.11905      595.11905      595.11905      2202.4405      2797.5595      2202.4405      2797.5595      2202.4405      2797.5595      2.1077134e+08  0.5            16455000       0              0              0              0
Averages over the last 251 of 501 rows, steps 32955000 to 33005000:
Temp Press PotEng Density KinEng TotEng Lx Ly Lz Xlo Xhi Ylo Yhi Zlo Zhi Volume Dt
277593 3124.7 -2.08284e+07 2.2077 823315 -2.00051e+07 595.119 595.119 595.119 2202.44 2797.56 2202.44 2797.56 2202.44 2797.56 2.10771e+08 0.5
Loop time of 8.93421 on 4 procs for 100000 steps with 996 atoms

unfix 2

fix 3 all nvt temp 370000 370000 $(100.0*dt) #iso 1.0 1.0 $(1000.0*dt)
fix 3 all nvt temp 370000 370000 50

run 200000
Generated 0 of 1 mixed pair_coeff terms from geometric mixing rule
Step          Temp          Press          PotEng        Density         KinEng         TotEng           Lx             Ly             Lz            Xlo            Xhi            Ylo            Yhi            Zlo            Zhi           Volume           Dt            Time           CPU           T/CPU          S/CPU         CPULeft
33005000   358302.33      3888.093      -20564532       2.2077046      1062691       -19501841       595.11905      595.11905      595.11905      2202.4405      2797.5595      2202.4405      2797.5595      2202.4405      2797.5595      2.1077134e+08  0.5            16505000       0              0              0              0
Averages over the last 501 of 1001 rows, steps 33105000 to 33205000:
Temp Press PotEng Density KinEng TotEng Lx Ly Lz Xlo Xhi Ylo Yhi Zlo Zhi Volume Dt
370038 3750.96 -2.05259e+07 2.2077 1.0975e+06 -1.94284e+07 595.119 595.119 595.119 2202.44 2797.56 2202.44 2797.56 2202.44 2797.56 2.10771e+08 0.5
Loop time of 18.0261 on 4 procs for 200000 steps with 996 atoms

unfix 3

fix 4 all nvt temp 370000 300 100.0

run 100000
Generated 0 of 1 mixed pair_coeff terms from geometric mixing rule
Step          Temp          Press          PotEng        Density         KinEng         TotEng           Lx             Ly             Lz            Xlo            Xhi            Ylo            Yhi            Zlo            Zhi           Volume           Dt            Time           CPU           T/CPU          S/CPU         CPULeft
33205000   370218.77      3626.0037     -20633271       2.2077046      1098034.1     -19535237       595.11905      595.11905      595.11905      2202.4405      2797.5595      2202.4405      2797.5595      2202.4405      2797.5595      2.1077134e+08  0.5            16605000       0              0              0              0
Averages over the last 251 of 501 rows, steps 33255000 to 33305000:
Temp Press PotEng Density KinEng TotEng Lx Ly Lz Xlo Xhi Ylo Yhi Zlo Zhi Volume Dt
93103 1108.27 -2.12878e+07 2.2077 276135 -2.10116e+07 595.119 595.119 595.119 2202.44 2797.56 2202.44 2797.56 2202.44 2797.56 2.10771e+08 0.5
Loop time of 8.99109 on 4 procs for 100000 steps with 996 atoms

unfix 4

fix 5 all npt temp 300 300 $(100.0*dt) iso 1.0 1.0 $(1000.0*dt)
fix 5 all npt temp 300 300 50 iso 1.0 1.0 $(1000.0*dt)
fix 5 all npt temp 300 300 50 iso 1.0 1.0 500

run 300000
Generated 0 of 1 mixed pair_coeff terms from geometric mixing rule
Step          Temp          Press          PotEng        Density         KinEng         TotEng           Lx             Ly             Lz            Xlo            Xhi            Ylo            Yhi            Zlo            Zhi           Volume           Dt            Time           CPU           T/CPU          S/CPU         CPULeft
33305000   1390.5837      190.80478     -21510475       2.2077046      4124.3406     -21506351       595.11905      595.11905      595.11905      2202.4405      2797.5595      2202.4405      2797.5595      2202.4405      2797.5595      2.1077134e+08  0.5            16655000       0              0              0              0
Averages over the last 751 of 1501 rows, steps 33455000 to 33605000:
Temp Press PotEng Density KinEng TotEng Lx Ly Lz Xlo Xhi Ylo Yhi Zlo Zhi Volume Dt
300.031 1.31166 -2.15544e+07 2.20477 889.864 -2.15535e+07 595.383 595.383 595.383 2202.31 2797.69 2202.31 2797.69 2202.31 2797.69 2.11051e+08 0.5
Loop time of 30.2581 on 4 procs for 300000 steps with 996 atoms

# run_style
run_style verlet

# write restart
write_restart ./pgnpmf/73/equpmf48.res
System init for write_restart ...
Generated 0 of 1 mixed pair_coeff terms from geometric mixing rule
