LAMMPS (23 Jun 2022 - Update 1)
# Read restart
read_restart ./pgnpmf/73/equpmf54.res
Reading restart file ...
  restart file = 23 Jun 2022, LAMMPS = 23 Jun 2022
  restoring atom style atomic from restart
  orthogonal box = (2202.2346 2202.2346 2202.2346) to (2797.7654 2797.7654 2797.7654)
  restoring pair style table from restart
  996 atoms
  read_restart CPU = 0.004 seconds

# Settings

pair_style table spline 9941

pair_coeff 1 1 ./pgnpmf/N20.txt DE_GNP 75.6
pair_coeff 2 2 ./pgnpmf/N100.txt DE_GNP 115.92
pair_coeff 1 2 ./pgnpmf/mixed_potential.txt DE_GNP 95.66

#Neigh_list Calc Frequency

neigh_modify delay 0 every 1 check yes

# Saving Frequency (50 frames)

variable ts_save equal 5000

# Dump
#dump_modify 1 first no sort id
#dump 2 all cfg 50000 ./equilibration/trajectory/ovito/dumpgen.tens_*.cfg mass type xs ys zs fx fy fz

# thermo_style
thermo_style custom step temp press pe density ke etotal lx ly lz xlo xhi ylo yhi zlo zhi vol dt time cpu tpcpu spcpu cpuremain

# run info
timestep 0.5
thermo 200

# fix

fix 1 all momentum 1000 linear 1 1 1 angular
variable T equal 300
fix 2 all nvt temp 300 370000 100.0

run 100000
Generated 0 of 1 mixed pair_coeff terms from geometric mixing rule
Unused restart file global fix info:
  fix style: npt, fix ID: 5
  update every 1 steps, delay 0 steps, check yes
Step          Temp          Press          PotEng        Density         KinEng         TotEng           Lx             Ly             Lz            Xlo            Xhi            Ylo            Yhi            Zlo            Zhi           Volume           Dt            Time           CPU           T/CPU          S/CPU         CPULeft
37805000   320.55568     -2.759339      -21558612       2.2031293      950.73802     -21557661       595.53074      595.53074      595.53074      2202.2346      2797.7654      2202.2346      2797.7654      2202.2346      2797.7654      2.1120906e+08  0.5            18905000       0              0              0              0
Averages over the last 251 of 501 rows, steps 37855000 to 37905000:
Temp Press PotEng Density KinEng TotEng Lx Ly Lz Xlo Xhi Ylo Yhi Zlo Zhi Volume Dt
277617 2936.21 -2.07619e+07 2.20313 823385 -1.99385e+07 595.531 595.531 595.531 2202.23 2797.77 2202.23 2797.77 2202.23 2797.77 2.11209e+08 0.5
Loop time of 8.97085 on 4 procs for 100000 steps with 996 atoms

unfix 2

fix 3 all nvt temp 370000 370000 $(100.0*dt) #iso 1.0 1.0 $(1000.0*dt)
fix 3 all nvt temp 370000 370000 50

run 200000
Generated 0 of 1 mixed pair_coeff terms from geometric mixing rule
Step          Temp          Press          PotEng        Density         KinEng         TotEng           Lx             Ly             Lz            Xlo            Xhi            Ylo            Yhi            Zlo            Zhi           Volume           Dt            Time           CPU           T/CPU          S/CPU         CPULeft
37905000   361899.1       3676.6123     -20523467       2.2031293      1073358.7     -19450108       595.53074      595.53074      595.53074      2202.2346      2797.7654      2202.2346      2797.7654      2202.2346      2797.7654      2.1120906e+08  0.5            18955000       0              0              0              0
Averages over the last 501 of 1001 rows, steps 38005000 to 38105000:
Temp Press PotEng Density KinEng TotEng Lx Ly Lz Xlo Xhi Ylo Yhi Zlo Zhi Volume Dt
370299 3660.81 -2.04808e+07 2.20313 1.09827e+06 -1.93825e+07 595.531 595.531 595.531 2202.23 2797.77 2202.23 2797.77 2202.23 2797.77 2.11209e+08 0.5
Loop time of 17.9929 on 4 procs for 200000 steps with 996 atoms

unfix 3

fix 4 all nvt temp 370000 300 100.0

run 100000
Generated 0 of 1 mixed pair_coeff terms from geometric mixing rule
Step          Temp          Press          PotEng        Density         KinEng         TotEng           Lx             Ly             Lz            Xlo            Xhi            Ylo            Yhi            Zlo            Zhi           Volume           Dt            Time           CPU           T/CPU          S/CPU         CPULeft
38105000   374466.27      3703.4535     -20401998       2.2031293      1110631.8     -19291366       595.53074      595.53074      595.53074      2202.2346      2797.7654      2202.2346      2797.7654      2202.2346      2797.7654      2.1120906e+08  0.5            19055000       0              0              0              0
Averages over the last 251 of 501 rows, steps 38155000 to 38205000:
Temp Press PotEng Density KinEng TotEng Lx Ly Lz Xlo Xhi Ylo Yhi Zlo Zhi Volume Dt
93007.4 1045.94 -2.11967e+07 2.20313 275851 -2.09208e+07 595.531 595.531 595.531 2202.23 2797.77 2202.23 2797.77 2202.23 2797.77 2.11209e+08 0.5
Loop time of 8.91123 on 4 procs for 100000 steps with 996 atoms

unfix 4

fix 5 all npt temp 300 300 $(100.0*dt) iso 1.0 1.0 $(1000.0*dt)
fix 5 all npt temp 300 300 50 iso 1.0 1.0 $(1000.0*dt)
fix 5 all npt temp 300 300 50 iso 1.0 1.0 500

run 300000
Generated 0 of 1 mixed pair_coeff terms from geometric mixing rule
Step          Temp          Press          PotEng        Density         KinEng         TotEng           Lx             Ly             Lz            Xlo            Xhi            Ylo            Yhi            Zlo            Zhi           Volume           Dt            Time           CPU           T/CPU          S/CPU         CPULeft
38205000   1382.1105      129.69277     -21447537       2.2031293      4099.2098     -21443438       595.53074      595.53074      595.53074      2202.2346      2797.7654      2202.2346      2797.7654      2202.2346      2797.7654      2.1120906e+08  0.5            19105000       0              0              0              0
Averages over the last 751 of 1501 rows, steps 38355000 to 38505000:
Temp Press PotEng Density KinEng TotEng Lx Ly Lz Xlo Xhi Ylo Yhi Zlo Zhi Volume Dt
300.229 1.05448 -2.15415e+07 2.20277 890.451 -2.15406e+07 595.563 595.563 595.563 2202.22 2797.78 2202.22 2797.78 2202.22 2797.78 2.11243e+08 0.5
Loop time of 30.969 on 4 procs for 300000 steps with 996 atoms

# run_style
run_style verlet

# write restart
write_restart ./pgnpmf/73/equpmf55.res
System init for write_restart ...
Generated 0 of 1 mixed pair_coeff terms from geometric mixing rule
