LAMMPS (23 Jun 2022 - Update 1)
# Read restart
read_restart ./pgnpmf/73/equpmf51.res
Reading restart file ...
  restart file = 23 Jun 2022, LAMMPS = 23 Jun 2022
  restoring atom style atomic from restart
  orthogonal box = (2202.3768 2202.3768 2202.3768) to (2797.6232 2797.6232 2797.6232)
  restoring pair style table from restart
  996 atoms
  read_restart CPU = 0.004 seconds

# Settings

pair_style table spline 9941

pair_coeff 1 1 ./pgnpmf/N20.txt DE_GNP 75.6
pair_coeff 2 2 ./pgnpmf/N100.txt DE_GNP 115.92
pair_coeff 1 2 ./pgnpmf/mixed_potential.txt DE_GNP 95.66

#Neigh_list Calc Frequency

neigh_modify delay 0 every 1 check yes

# Saving Frequency (50 frames)

variable ts_save equal 5000

# Dump
#dump_modify 1 first no sort id
#dump 2 all cfg 50000 ./equilibration/trajectory/ovito/dumpgen.tens_*.cfg mass type xs ys zs fx fy fz

# thermo_style
thermo_style custom step temp press pe density ke etotal lx ly lz xlo xhi ylo yhi zlo zhi vol dt time cpu tpcpu spcpu cpuremain

# run info
timestep 0.5
thermo 200

# fix

fix 1 all momentum 1000 linear 1 1 1 angular
variable T equal 300
fix 2 all nvt temp 300 370000 100.0

run 100000
Generated 0 of 1 mixed pair_coeff terms from geometric mixing rule
Unused restart file global fix info:
  fix style: npt, fix ID: 5
  update every 1 steps, delay 0 steps, check yes
Step          Temp          Press          PotEng        Density         KinEng         TotEng           Lx             Ly             Lz            Xlo            Xhi            Ylo            Yhi            Zlo            Zhi           Volume           Dt            Time           CPU           T/CPU          S/CPU         CPULeft
35705000   306.16838      4.1690737     -21496651       2.2062879      908.06662     -21495743       595.2464       595.2464       595.2464       2202.3768      2797.6232      2202.3768      2797.6232      2202.3768      2797.6232      2.1090668e+08  0.5            17855000       0              0              0              0
Averages over the last 251 of 501 rows, steps 35755000 to 35805000:
Temp Press PotEng Density KinEng TotEng Lx Ly Lz Xlo Xhi Ylo Yhi Zlo Zhi Volume Dt
277341 3024.12 -2.08316e+07 2.20629 822567 -2.0009e+07 595.246 595.246 595.246 2202.38 2797.62 2202.38 2797.62 2202.38 2797.62 2.10907e+08 0.5
Loop time of 9.46375 on 4 procs for 100000 steps with 996 atoms

unfix 2

fix 3 all nvt temp 370000 370000 $(100.0*dt) #iso 1.0 1.0 $(1000.0*dt)
fix 3 all nvt temp 370000 370000 50

run 200000
Generated 0 of 1 mixed pair_coeff terms from geometric mixing rule
Step          Temp          Press          PotEng        Density         KinEng         TotEng           Lx             Ly             Lz            Xlo            Xhi            Ylo            Yhi            Zlo            Zhi           Volume           Dt            Time           CPU           T/CPU          S/CPU         CPULeft
35805000   376082.99      3601.4429     -20674660       2.2062879      1115426.8     -19559233       595.2464       595.2464       595.2464       2202.3768      2797.6232      2202.3768      2797.6232      2202.3768      2797.6232      2.1090668e+08  0.5            17905000       0              0              0              0
Averages over the last 501 of 1001 rows, steps 35905000 to 36005000:
Temp Press PotEng Density KinEng TotEng Lx Ly Lz Xlo Xhi Ylo Yhi Zlo Zhi Volume Dt
369723 3798.26 -2.04673e+07 2.20629 1.09656e+06 -1.93707e+07 595.246 595.246 595.246 2202.38 2797.62 2202.38 2797.62 2202.38 2797.62 2.10907e+08 0.5
Loop time of 18.9206 on 4 procs for 200000 steps with 996 atoms

unfix 3

fix 4 all nvt temp 370000 300 100.0

run 100000
Generated 0 of 1 mixed pair_coeff terms from geometric mixing rule
Step          Temp          Press          PotEng        Density         KinEng         TotEng           Lx             Ly             Lz            Xlo            Xhi            Ylo            Yhi            Zlo            Zhi           Volume           Dt            Time           CPU           T/CPU          S/CPU         CPULeft
36005000   377760.03      3720.5512     -20462260       2.2062879      1120400.7     -19341860       595.2464       595.2464       595.2464       2202.3768      2797.6232      2202.3768      2797.6232      2202.3768      2797.6232      2.1090668e+08  0.5            18005000       0              0              0              0
Averages over the last 251 of 501 rows, steps 36055000 to 36105000:
Temp Press PotEng Density KinEng TotEng Lx Ly Lz Xlo Xhi Ylo Yhi Zlo Zhi Volume Dt
93066.3 1234.23 -2.11764e+07 2.20629 276026 -2.09004e+07 595.246 595.246 595.246 2202.38 2797.62 2202.38 2797.62 2202.38 2797.62 2.10907e+08 0.5
Loop time of 9.41877 on 4 procs for 100000 steps with 996 atoms

unfix 4

fix 5 all npt temp 300 300 $(100.0*dt) iso 1.0 1.0 $(1000.0*dt)
fix 5 all npt temp 300 300 50 iso 1.0 1.0 $(1000.0*dt)
fix 5 all npt temp 300 300 50 iso 1.0 1.0 500

run 300000
Generated 0 of 1 mixed pair_coeff terms from geometric mixing rule
Step          Temp          Press          PotEng        Density         KinEng         TotEng           Lx             Ly             Lz            Xlo            Xhi            Ylo            Yhi            Zlo            Zhi           Volume           Dt            Time           CPU           T/CPU          S/CPU         CPULeft
36105000   1402.3159      345.05483     -21402945       2.2062879      4159.1372     -21398786       595.2464       595.2464       595.2464       2202.3768      2797.6232      2202.3768      2797.6232      2202.3768      2797.6232      2.1090668e+08  0.5            18055000       0              0              0              0
Averages over the last 751 of 1501 rows, steps 36255000 to 36405000:
Temp Press PotEng Density KinEng TotEng Lx Ly Lz Xlo Xhi Ylo Yhi Zlo Zhi Volume Dt
300.072 1.08 -2.14692e+07 2.19814 889.986 -2.14683e+07 595.981 595.981 595.981 2202.01 2797.99 2202.01 2797.99 2202.01 2797.99 2.11689e+08 0.5
Loop time of 32.0296 on 4 procs for 300000 steps with 996 atoms

# run_style
run_style verlet

# write restart
write_restart ./pgnpmf/73/equpmf52.res
System init for write_restart ...
Generated 0 of 1 mixed pair_coeff terms from geometric mixing rule
