LAMMPS (23 Jun 2022 - Update 1)
# Read restart
read_restart ./pgnpmf/73/equpmf34.res
Reading restart file ...
  restart file = 23 Jun 2022, LAMMPS = 23 Jun 2022
  restoring atom style atomic from restart
  orthogonal box = (2202.2734 2202.2734 2202.2734) to (2797.7266 2797.7266 2797.7266)
  restoring pair style table from restart
  996 atoms
  read_restart CPU = 0.004 seconds

# Settings

pair_style table spline 9941

pair_coeff 1 1 ./pgnpmf/N20.txt DE_GNP 75.6
pair_coeff 2 2 ./pgnpmf/N100.txt DE_GNP 115.92
pair_coeff 1 2 ./pgnpmf/mixed_potential.txt DE_GNP 95.66

#Neigh_list Calc Frequency

neigh_modify delay 0 every 1 check yes

# Saving Frequency (50 frames)

variable ts_save equal 5000

# Dump
#dump_modify 1 first no sort id
#dump 2 all cfg 50000 ./equilibration/trajectory/ovito/dumpgen.tens_*.cfg mass type xs ys zs fx fy fz

# thermo_style
thermo_style custom step temp press pe density ke etotal lx ly lz xlo xhi ylo yhi zlo zhi vol dt time cpu tpcpu spcpu cpuremain

# run info
timestep 0.5
thermo 200

# fix

fix 1 all momentum 1000 linear 1 1 1 angular
variable T equal 300
fix 2 all nvt temp 300 370000 100.0

run 100000
Generated 0 of 1 mixed pair_coeff terms from geometric mixing rule
Unused restart file global fix info:
  fix style: npt, fix ID: 5
  update every 1 steps, delay 0 steps, check yes
Step          Temp          Press          PotEng        Density         KinEng         TotEng           Lx             Ly             Lz            Xlo            Xhi            Ylo            Yhi            Zlo            Zhi           Volume           Dt            Time           CPU           T/CPU          S/CPU         CPULeft
23805000   313.99159      5.0076827     -21561504       2.2039897      931.26953     -21560573       595.45323      595.45323      595.45323      2202.2734      2797.7266      2202.2734      2797.7266      2202.2734      2797.7266      2.111266e+08   0.5            11905000       0              0              0              0
Averages over the last 251 of 501 rows, steps 23855000 to 23905000:
Temp Press PotEng Density KinEng TotEng Lx Ly Lz Xlo Xhi Ylo Yhi Zlo Zhi Volume Dt
277370 2908.69 -2.0795e+07 2.20399 822653 -1.99724e+07 595.453 595.453 595.453 2202.27 2797.73 2202.27 2797.73 2202.27 2797.73 2.11127e+08 0.5
Loop time of 9.13539 on 4 procs for 100000 steps with 996 atoms

unfix 2

fix 3 all nvt temp 370000 370000 $(100.0*dt) #iso 1.0 1.0 $(1000.0*dt)
fix 3 all nvt temp 370000 370000 50

run 200000
Generated 0 of 1 mixed pair_coeff terms from geometric mixing rule
Step          Temp          Press          PotEng        Density         KinEng         TotEng           Lx             Ly             Lz            Xlo            Xhi            Ylo            Yhi            Zlo            Zhi           Volume           Dt            Time           CPU           T/CPU          S/CPU         CPULeft
23905000   348186.55      3779.343      -20531952       2.2039897      1032688.6     -19499263       595.45323      595.45323      595.45323      2202.2734      2797.7266      2202.2734      2797.7266      2202.2734      2797.7266      2.111266e+08   0.5            11955000       0              0              0              0
Averages over the last 501 of 1001 rows, steps 24005000 to 24105000:
Temp Press PotEng Density KinEng TotEng Lx Ly Lz Xlo Xhi Ylo Yhi Zlo Zhi Volume Dt
370259 3687.62 -2.05265e+07 2.20399 1.09815e+06 -1.94284e+07 595.453 595.453 595.453 2202.27 2797.73 2202.27 2797.73 2202.27 2797.73 2.11127e+08 0.5
Loop time of 18.3033 on 4 procs for 200000 steps with 996 atoms

unfix 3

fix 4 all nvt temp 370000 300 100.0

run 100000
Generated 0 of 1 mixed pair_coeff terms from geometric mixing rule
Step          Temp          Press          PotEng        Density         KinEng         TotEng           Lx             Ly             Lz            Xlo            Xhi            Ylo            Yhi            Zlo            Zhi           Volume           Dt            Time           CPU           T/CPU          S/CPU         CPULeft
24105000   382597.31      3589.879      -20570253       2.2039897      1134747.7     -19435505       595.45323      595.45323      595.45323      2202.2734      2797.7266      2202.2734      2797.7266      2202.2734      2797.7266      2.111266e+08   0.5            12055000       0              0              0              0
Averages over the last 251 of 501 rows, steps 24155000 to 24205000:
Temp Press PotEng Density KinEng TotEng Lx Ly Lz Xlo Xhi Ylo Yhi Zlo Zhi Volume Dt
93087.3 1151.95 -2.12668e+07 2.20399 276088 -2.09907e+07 595.453 595.453 595.453 2202.27 2797.73 2202.27 2797.73 2202.27 2797.73 2.11127e+08 0.5
Loop time of 9.085 on 4 procs for 100000 steps with 996 atoms

unfix 4

fix 5 all npt temp 300 300 $(100.0*dt) iso 1.0 1.0 $(1000.0*dt)
fix 5 all npt temp 300 300 50 iso 1.0 1.0 $(1000.0*dt)
fix 5 all npt temp 300 300 50 iso 1.0 1.0 500

run 300000
Generated 0 of 1 mixed pair_coeff terms from geometric mixing rule
Step          Temp          Press          PotEng        Density         KinEng         TotEng           Lx             Ly             Lz            Xlo            Xhi            Ylo            Yhi            Zlo            Zhi           Volume           Dt            Time           CPU           T/CPU          S/CPU         CPULeft
24205000   1397.8911      215.44534     -21513959       2.2039897      4146.0137     -21509813       595.45323      595.45323      595.45323      2202.2734      2797.7266      2202.2734      2797.7266      2202.2734      2797.7266      2.111266e+08   0.5            12105000       0              0              0              0
Averages over the last 751 of 1501 rows, steps 24355000 to 24505000:
Temp Press PotEng Density KinEng TotEng Lx Ly Lz Xlo Xhi Ylo Yhi Zlo Zhi Volume Dt
300.073 0.71292 -2.15189e+07 2.20078 889.987 -2.1518e+07 595.743 595.743 595.743 2202.13 2797.87 2202.13 2797.87 2202.13 2797.87 2.11435e+08 0.5
Loop time of 30.8919 on 4 procs for 300000 steps with 996 atoms

# run_style
run_style verlet

# write restart
write_restart ./pgnpmf/73/equpmf35.res
System init for write_restart ...
Generated 0 of 1 mixed pair_coeff terms from geometric mixing rule
