LAMMPS (23 Jun 2022 - Update 1)
# Read restart
read_restart ./pgnpmf/73/equpmf71.res
Reading restart file ...
  restart file = 23 Jun 2022, LAMMPS = 23 Jun 2022
  restoring atom style atomic from restart
  orthogonal box = (2202.3864 2202.3864 2202.3864) to (2797.6136 2797.6136 2797.6136)
  restoring pair style table from restart
  996 atoms
  read_restart CPU = 0.033 seconds

# Settings

pair_style table spline 9941

pair_coeff 1 1 ./pgnpmf/N20.txt DE_GNP 75.6
pair_coeff 2 2 ./pgnpmf/N100.txt DE_GNP 115.92
pair_coeff 1 2 ./pgnpmf/mixed_potential.txt DE_GNP 95.66

#Neigh_list Calc Frequency

neigh_modify delay 0 every 1 check yes

# Saving Frequency (50 frames)

variable ts_save equal 5000

# Dump
#dump_modify 1 first no sort id
dump 2 all cfg 50000 ./pgnpmf/73/equilibration/trajectory/dumpgen.tens_*.cfg mass type xs ys zs fx fy fz
dump_modify 2 element N20 N100

# thermo_style
thermo_style custom step temp press pe density ke etotal lx ly lz xlo xhi ylo yhi zlo zhi vol dt time cpu tpcpu spcpu cpuremain

# run info
timestep 0.5
thermo 200

# fix

fix 1 all momentum 1000 linear 1 1 1 angular
variable T equal 300
fix 2 all nvt temp 300 370000 100.0

run 100000
Generated 0 of 1 mixed pair_coeff terms from geometric mixing rule
Unused restart file global fix info:
  fix style: npt, fix ID: 5
  update every 1 steps, delay 0 steps, check yes
Step          Temp          Press          PotEng        Density         KinEng         TotEng           Lx             Ly             Lz            Xlo            Xhi            Ylo            Yhi            Zlo            Zhi           Volume           Dt            Time           CPU           T/CPU          S/CPU         CPULeft
49705000   291.3077      -2.2674134     -21576703       2.2065017      863.99126     -21575839       595.22718      595.22718      595.22718      2202.3864      2797.6136      2202.3864      2797.6136      2202.3864      2797.6136      2.1088624e+08  0.5            24855000       0              0              0              0
Averages over the last 251 of 501 rows, steps 49755000 to 49805000:
Temp Press PotEng Density KinEng TotEng Lx Ly Lz Xlo Xhi Ylo Yhi Zlo Zhi Volume Dt
277654 3005.77 -2.08231e+07 2.2065 823495 -1.99996e+07 595.227 595.227 595.227 2202.39 2797.61 2202.39 2797.61 2202.39 2797.61 2.10886e+08 0.5
Loop time of 7.58582 on 4 procs for 100000 steps with 996 atoms

unfix 2

fix 3 all nvt temp 370000 370000 $(100.0*dt) #iso 1.0 1.0 $(1000.0*dt)
fix 3 all nvt temp 370000 370000 50

run 200000
Generated 0 of 1 mixed pair_coeff terms from geometric mixing rule
Step          Temp          Press          PotEng        Density         KinEng         TotEng           Lx             Ly             Lz            Xlo            Xhi            Ylo            Yhi            Zlo            Zhi           Volume           Dt            Time           CPU           T/CPU          S/CPU         CPULeft
49805000   369773.2       3593.734      -20710382       2.2065017      1096712.6     -19613670       595.22718      595.22718      595.22718      2202.3864      2797.6136      2202.3864      2797.6136      2202.3864      2797.6136      2.1088624e+08  0.5            24905000       0              0              0              0
Averages over the last 501 of 1001 rows, steps 49905000 to 50005000:
Temp Press PotEng Density KinEng TotEng Lx Ly Lz Xlo Xhi Ylo Yhi Zlo Zhi Volume Dt
369817 3610.51 -2.05923e+07 2.2065 1.09684e+06 -1.94955e+07 595.227 595.227 595.227 2202.39 2797.61 2202.39 2797.61 2202.39 2797.61 2.10886e+08 0.5
Loop time of 15.1258 on 4 procs for 200000 steps with 996 atoms

unfix 3

fix 4 all nvt temp 370000 300 100.0

run 100000
Generated 0 of 1 mixed pair_coeff terms from geometric mixing rule
Step          Temp          Press          PotEng        Density         KinEng         TotEng           Lx             Ly             Lz            Xlo            Xhi            Ylo            Yhi            Zlo            Zhi           Volume           Dt            Time           CPU           T/CPU          S/CPU         CPULeft
50005000   372854.75      3725.1458     -20613895       2.2065017      1105852.1     -19508042       595.22718      595.22718      595.22718      2202.3864      2797.6136      2202.3864      2797.6136      2202.3864      2797.6136      2.1088624e+08  0.5            25005000       0              0              0              0
Averages over the last 251 of 501 rows, steps 50055000 to 50105000:
Temp Press PotEng Density KinEng TotEng Lx Ly Lz Xlo Xhi Ylo Yhi Zlo Zhi Volume Dt
93197.2 1030.16 -2.12996e+07 2.2065 276414 -2.10232e+07 595.227 595.227 595.227 2202.39 2797.61 2202.39 2797.61 2202.39 2797.61 2.10886e+08 0.5
Loop time of 7.46135 on 4 procs for 100000 steps with 996 atoms

unfix 4

fix 5 all npt temp 300 300 $(100.0*dt) iso 1.0 1.0 $(1000.0*dt)
fix 5 all npt temp 300 300 50 iso 1.0 1.0 $(1000.0*dt)
fix 5 all npt temp 300 300 50 iso 1.0 1.0 500

run 300000
Generated 0 of 1 mixed pair_coeff terms from geometric mixing rule
Step          Temp          Press          PotEng        Density         KinEng         TotEng           Lx             Ly             Lz            Xlo            Xhi            Ylo            Yhi            Zlo            Zhi           Volume           Dt            Time           CPU           T/CPU          S/CPU         CPULeft
50105000   1389.1025      101.65472     -21568856       2.2065017      4119.9475     -21564736       595.22718      595.22718      595.22718      2202.3864      2797.6136      2202.3864      2797.6136      2202.3864      2797.6136      2.1088624e+08  0.5            25055000       0              0              0              0
Averages over the last 751 of 1501 rows, steps 50255000 to 50405000:
Temp Press PotEng Density KinEng TotEng Lx Ly Lz Xlo Xhi Ylo Yhi Zlo Zhi Volume Dt
300.055 1.02667 -2.16471e+07 2.20742 889.936 -2.16462e+07 595.145 595.145 595.145 2202.43 2797.57 2202.43 2797.57 2202.43 2797.57 2.10798e+08 0.5
Loop time of 26.4333 on 4 procs for 300000 steps with 996 atoms

# run_style
run_style verlet

# write restart
write_restart ./pgnpmf/73/equpmf72.res
System init for write_restart ...
Generated 0 of 1 mixed pair_coeff terms from geometric mixing rule
