LAMMPS (23 Jun 2022 - Update 1)
# Read restart
read_restart ./pgnpmf/73/equpmf57.res
Reading restart file ...
  restart file = 23 Jun 2022, LAMMPS = 23 Jun 2022
  restoring atom style atomic from restart
  orthogonal box = (2202.2233 2202.2233 2202.2233) to (2797.7767 2797.7767 2797.7767)
  restoring pair style table from restart
  996 atoms
  read_restart CPU = 0.004 seconds

# Settings

pair_style table spline 9941

pair_coeff 1 1 ./pgnpmf/N20.txt DE_GNP 75.6
pair_coeff 2 2 ./pgnpmf/N100.txt DE_GNP 115.92
pair_coeff 1 2 ./pgnpmf/mixed_potential.txt DE_GNP 95.66

#Neigh_list Calc Frequency

neigh_modify delay 0 every 1 check yes

# Saving Frequency (50 frames)

variable ts_save equal 5000

# Dump
#dump_modify 1 first no sort id
#dump 2 all cfg 50000 ./equilibration/trajectory/ovito/dumpgen.tens_*.cfg mass type xs ys zs fx fy fz

# thermo_style
thermo_style custom step temp press pe density ke etotal lx ly lz xlo xhi ylo yhi zlo zhi vol dt time cpu tpcpu spcpu cpuremain

# run info
timestep 0.5
thermo 200

# fix

fix 1 all momentum 1000 linear 1 1 1 angular
variable T equal 300
fix 2 all nvt temp 300 370000 100.0

run 100000
Generated 0 of 1 mixed pair_coeff terms from geometric mixing rule
Unused restart file global fix info:
  fix style: npt, fix ID: 5
  update every 1 steps, delay 0 steps, check yes
Step          Temp          Press          PotEng        Density         KinEng         TotEng           Lx             Ly             Lz            Xlo            Xhi            Ylo            Yhi            Zlo            Zhi           Volume           Dt            Time           CPU           T/CPU          S/CPU         CPULeft
39905000   308.66907     -3.8298805     -21581142       2.2028785      915.48344     -21580227       595.55333      595.55333      595.55333      2202.2233      2797.7767      2202.2233      2797.7767      2202.2233      2797.7767      2.112331e+08   0.5            19955000       0              0              0              0
Averages over the last 251 of 501 rows, steps 39955000 to 40005000:
Temp Press PotEng Density KinEng TotEng Lx Ly Lz Xlo Xhi Ylo Yhi Zlo Zhi Volume Dt
277265 3113.04 -2.08888e+07 2.20288 822341 -2.00664e+07 595.553 595.553 595.553 2202.22 2797.78 2202.22 2797.78 2202.22 2797.78 2.11233e+08 0.5
Loop time of 9.75773 on 4 procs for 100000 steps with 996 atoms

unfix 2

fix 3 all nvt temp 370000 370000 $(100.0*dt) #iso 1.0 1.0 $(1000.0*dt)
fix 3 all nvt temp 370000 370000 50

run 200000
Generated 0 of 1 mixed pair_coeff terms from geometric mixing rule
Step          Temp          Press          PotEng        Density         KinEng         TotEng           Lx             Ly             Lz            Xlo            Xhi            Ylo            Yhi            Zlo            Zhi           Volume           Dt            Time           CPU           T/CPU          S/CPU         CPULeft
40005000   380322.83      3786.7243     -20629644       2.2028785      1128001.8     -19501642       595.55333      595.55333      595.55333      2202.2233      2797.7767      2202.2233      2797.7767      2202.2233      2797.7767      2.112331e+08   0.5            20005000       0              0              0              0
Averages over the last 501 of 1001 rows, steps 40105000 to 40205000:
Temp Press PotEng Density KinEng TotEng Lx Ly Lz Xlo Xhi Ylo Yhi Zlo Zhi Volume Dt
369979 3721.32 -2.0598e+07 2.20288 1.09732e+06 -1.95007e+07 595.553 595.553 595.553 2202.22 2797.78 2202.22 2797.78 2202.22 2797.78 2.11233e+08 0.5
Loop time of 19.6088 on 4 procs for 200000 steps with 996 atoms

unfix 3

fix 4 all nvt temp 370000 300 100.0

run 100000
Generated 0 of 1 mixed pair_coeff terms from geometric mixing rule
Step          Temp          Press          PotEng        Density         KinEng         TotEng           Lx             Ly             Lz            Xlo            Xhi            Ylo            Yhi            Zlo            Zhi           Volume           Dt            Time           CPU           T/CPU          S/CPU         CPULeft
40205000   369782.36      3723.6319     -20594794       2.2028785      1096739.7     -19498054       595.55333      595.55333      595.55333      2202.2233      2797.7767      2202.2233      2797.7767      2202.2233      2797.7767      2.112331e+08   0.5            20105000       0              0              0              0
Averages over the last 251 of 501 rows, steps 40255000 to 40305000:
Temp Press PotEng Density KinEng TotEng Lx Ly Lz Xlo Xhi Ylo Yhi Zlo Zhi Volume Dt
92966.7 1075.19 -2.12819e+07 2.20288 275730 -2.10062e+07 595.553 595.553 595.553 2202.22 2797.78 2202.22 2797.78 2202.22 2797.78 2.11233e+08 0.5
Loop time of 9.7257 on 4 procs for 100000 steps with 996 atoms

unfix 4

fix 5 all npt temp 300 300 $(100.0*dt) iso 1.0 1.0 $(1000.0*dt)
fix 5 all npt temp 300 300 50 iso 1.0 1.0 $(1000.0*dt)
fix 5 all npt temp 300 300 50 iso 1.0 1.0 500

run 300000
Generated 0 of 1 mixed pair_coeff terms from geometric mixing rule
Step          Temp          Press          PotEng        Density         KinEng         TotEng           Lx             Ly             Lz            Xlo            Xhi            Ylo            Yhi            Zlo            Zhi           Volume           Dt            Time           CPU           T/CPU          S/CPU         CPULeft
40305000   1378.7253      173.53298     -21560882       2.2028785      4089.1697     -21556793       595.55333      595.55333      595.55333      2202.2233      2797.7767      2202.2233      2797.7767      2202.2233      2797.7767      2.112331e+08   0.5            20155000       0              0              0              0
Averages over the last 751 of 1501 rows, steps 40455000 to 40605000:
Temp Press PotEng Density KinEng TotEng Lx Ly Lz Xlo Xhi Ylo Yhi Zlo Zhi Volume Dt
300.283 0.878001 -2.16043e+07 2.20105 890.61 -2.16034e+07 595.719 595.719 595.719 2202.14 2797.86 2202.14 2797.86 2202.14 2797.86 2.11409e+08 0.5
Loop time of 33.1529 on 4 procs for 300000 steps with 996 atoms

# run_style
run_style verlet

# write restart
write_restart ./pgnpmf/73/equpmf58.res
System init for write_restart ...
Generated 0 of 1 mixed pair_coeff terms from geometric mixing rule
