LAMMPS (23 Jun 2022 - Update 1)
# Read restart
read_restart ./pgnpmf/73/equpmf70.res
Reading restart file ...
  restart file = 23 Jun 2022, LAMMPS = 23 Jun 2022
  restoring atom style atomic from restart
  orthogonal box = (2202.4221 2202.4221 2202.4221) to (2797.5779 2797.5779 2797.5779)
  restoring pair style table from restart
  996 atoms
  read_restart CPU = 0.005 seconds

# Settings

pair_style table spline 9941

pair_coeff 1 1 ./pgnpmf/N20.txt DE_GNP 75.6
pair_coeff 2 2 ./pgnpmf/N100.txt DE_GNP 115.92
pair_coeff 1 2 ./pgnpmf/mixed_potential.txt DE_GNP 95.66

#Neigh_list Calc Frequency

neigh_modify delay 0 every 1 check yes

# Saving Frequency (50 frames)

variable ts_save equal 5000

# Dump
#dump_modify 1 first no sort id
#dump 2 all cfg 50000 ./equilibration/trajectory/ovito/dumpgen.tens_*.cfg mass type xs ys zs fx fy fz

# thermo_style
thermo_style custom step temp press pe density ke etotal lx ly lz xlo xhi ylo yhi zlo zhi vol dt time cpu tpcpu spcpu cpuremain

# run info
timestep 0.5
thermo 200

# fix

fix 1 all momentum 1000 linear 1 1 1 angular
variable T equal 300
fix 2 all nvt temp 300 370000 100.0

run 100000
Generated 0 of 1 mixed pair_coeff terms from geometric mixing rule
Unused restart file global fix info:
  fix style: npt, fix ID: 5
  update every 1 steps, delay 0 steps, check yes
Step          Temp          Press          PotEng        Density         KinEng         TotEng           Lx             Ly             Lz            Xlo            Xhi            Ylo            Yhi            Zlo            Zhi           Volume           Dt            Time           CPU           T/CPU          S/CPU         CPULeft
49005000   307.92262      13.625281     -21600468       2.2072949      913.26955     -21599555       595.15587      595.15587      595.15587      2202.4221      2797.5779      2202.4221      2797.5779      2202.4221      2797.5779      2.1081046e+08  0.5            24505000       0              0              0              0
Averages over the last 251 of 501 rows, steps 49055000 to 49105000:
Temp Press PotEng Density KinEng TotEng Lx Ly Lz Xlo Xhi Ylo Yhi Zlo Zhi Volume Dt
277316 3008.77 -2.0854e+07 2.20729 822494 -2.00315e+07 595.156 595.156 595.156 2202.42 2797.58 2202.42 2797.58 2202.42 2797.58 2.1081e+08 0.5
Loop time of 9.55928 on 4 procs for 100000 steps with 996 atoms

unfix 2

fix 3 all nvt temp 370000 370000 $(100.0*dt) #iso 1.0 1.0 $(1000.0*dt)
fix 3 all nvt temp 370000 370000 50

run 200000
Generated 0 of 1 mixed pair_coeff terms from geometric mixing rule
Step          Temp          Press          PotEng        Density         KinEng         TotEng           Lx             Ly             Lz            Xlo            Xhi            Ylo            Yhi            Zlo            Zhi           Volume           Dt            Time           CPU           T/CPU          S/CPU         CPULeft
49105000   360403.12      3814.5362     -20606318       2.2072949      1068921.8     -19537396       595.15587      595.15587      595.15587      2202.4221      2797.5779      2202.4221      2797.5779      2202.4221      2797.5779      2.1081046e+08  0.5            24555000       0              0              0              0
Averages over the last 501 of 1001 rows, steps 49205000 to 49305000:
Temp Press PotEng Density KinEng TotEng Lx Ly Lz Xlo Xhi Ylo Yhi Zlo Zhi Volume Dt
370111 3709.78 -2.05362e+07 2.20729 1.09771e+06 -1.94385e+07 595.156 595.156 595.156 2202.42 2797.58 2202.42 2797.58 2202.42 2797.58 2.1081e+08 0.5
Loop time of 19.2475 on 4 procs for 200000 steps with 996 atoms

unfix 3

fix 4 all nvt temp 370000 300 100.0

run 100000
Generated 0 of 1 mixed pair_coeff terms from geometric mixing rule
Step          Temp          Press          PotEng        Density         KinEng         TotEng           Lx             Ly             Lz            Xlo            Xhi            Ylo            Yhi            Zlo            Zhi           Volume           Dt            Time           CPU           T/CPU          S/CPU         CPULeft
49305000   378694.35      3716.6381     -20498775       2.2072949      1123171.9     -19375603       595.15587      595.15587      595.15587      2202.4221      2797.5779      2202.4221      2797.5779      2202.4221      2797.5779      2.1081046e+08  0.5            24655000       0              0              0              0
Averages over the last 251 of 501 rows, steps 49355000 to 49405000:
Temp Press PotEng Density KinEng TotEng Lx Ly Lz Xlo Xhi Ylo Yhi Zlo Zhi Volume Dt
93008.6 1078.02 -2.12468e+07 2.20729 275855 -2.09709e+07 595.156 595.156 595.156 2202.42 2797.58 2202.42 2797.58 2202.42 2797.58 2.1081e+08 0.5
Loop time of 9.55542 on 4 procs for 100000 steps with 996 atoms

unfix 4

fix 5 all npt temp 300 300 $(100.0*dt) iso 1.0 1.0 $(1000.0*dt)
fix 5 all npt temp 300 300 50 iso 1.0 1.0 $(1000.0*dt)
fix 5 all npt temp 300 300 50 iso 1.0 1.0 500

run 300000
Generated 0 of 1 mixed pair_coeff terms from geometric mixing rule
Step          Temp          Press          PotEng        Density         KinEng         TotEng           Lx             Ly             Lz            Xlo            Xhi            Ylo            Yhi            Zlo            Zhi           Volume           Dt            Time           CPU           T/CPU          S/CPU         CPULeft
49405000   1378.7947      100.52687     -21475492       2.2072949      4089.3754     -21471403       595.15587      595.15587      595.15587      2202.4221      2797.5779      2202.4221      2797.5779      2202.4221      2797.5779      2.1081046e+08  0.5            24705000       0              0              0              0
Averages over the last 751 of 1501 rows, steps 49555000 to 49705000:
Temp Press PotEng Density KinEng TotEng Lx Ly Lz Xlo Xhi Ylo Yhi Zlo Zhi Volume Dt
300.138 1.09524 -2.15713e+07 2.20653 890.182 -2.15704e+07 595.225 595.225 595.225 2202.39 2797.61 2202.39 2797.61 2202.39 2797.61 2.10883e+08 0.5
Loop time of 32.5977 on 4 procs for 300000 steps with 996 atoms

# run_style
run_style verlet

# write restart
write_restart ./pgnpmf/73/equpmf71.res
System init for write_restart ...
Generated 0 of 1 mixed pair_coeff terms from geometric mixing rule
