LAMMPS (23 Jun 2022 - Update 1)
# Read restart
read_restart ./pgnpmf/73/equpmf23.res
Reading restart file ...
  restart file = 23 Jun 2022, LAMMPS = 23 Jun 2022
  restoring atom style atomic from restart
  orthogonal box = (2181.7539 2181.7539 2181.7539) to (2818.2461 2818.2461 2818.2461)
  restoring pair style table from restart
  996 atoms
  read_restart CPU = 0.004 seconds

# Settings

pair_style table spline 9941

pair_coeff 1 1 ./pgnpmf/N20.txt DE_GNP 75.6
pair_coeff 2 2 ./pgnpmf/N100.txt DE_GNP 115.92
pair_coeff 1 2 ./pgnpmf/mixed_potential.txt DE_GNP 95.66

#Neigh_list Calc Frequency

neigh_modify delay 0 every 1 check yes

# Saving Frequency (50 frames)

variable ts_save equal 5000

# Dump
#dump_modify 1 first no sort id
#dump 2 all cfg 50000 ./equilibration/trajectory/ovito/dumpgen.tens_*.cfg mass type xs ys zs fx fy fz

# thermo_style
thermo_style custom step temp press pe density ke etotal lx ly lz xlo xhi ylo yhi zlo zhi vol dt time cpu tpcpu spcpu cpuremain

# run info
timestep 0.5
thermo 200

# fix

fix 1 all momentum 1000 linear 1 1 1 angular
variable T equal 300
fix 2 all nvt temp 300 370000 100.0

run 100000
Generated 0 of 1 mixed pair_coeff terms from geometric mixing rule
Unused restart file global fix info:
  fix style: npt, fix ID: 5
  update every 1 steps, delay 0 steps, check yes
Step          Temp          Press          PotEng        Density         KinEng         TotEng           Lx             Ly             Lz            Xlo            Xhi            Ylo            Yhi            Zlo            Zhi           Volume           Dt            Time           CPU           T/CPU          S/CPU         CPULeft
16105000   308.93805      2.5141675     -19491823       1.8045684      916.28122     -19490907       636.49215      636.49215      636.49215      2181.7539      2818.2461      2181.7539      2818.2461      2181.7539      2818.2461      2.5785714e+08  0.5            8055000        0              0              0              0
Averages over the last 251 of 501 rows, steps 16155000 to 16205000:
Temp Press PotEng Density KinEng TotEng Lx Ly Lz Xlo Xhi Ylo Yhi Zlo Zhi Volume Dt
277609 647.066 -1.91815e+07 1.80457 823363 -1.83582e+07 636.492 636.492 636.492 2181.75 2818.25 2181.75 2818.25 2181.75 2818.25 2.57857e+08 0.5
Loop time of 7.94271 on 4 procs for 100000 steps with 996 atoms

unfix 2

fix 3 all nvt temp 370000 370000 $(100.0*dt) #iso 1.0 1.0 $(1000.0*dt)
fix 3 all nvt temp 370000 370000 50

run 200000
Generated 0 of 1 mixed pair_coeff terms from geometric mixing rule
Step          Temp          Press          PotEng        Density         KinEng         TotEng           Lx             Ly             Lz            Xlo            Xhi            Ylo            Yhi            Zlo            Zhi           Volume           Dt            Time           CPU           T/CPU          S/CPU         CPULeft
16205000   355276.39      1015.0415     -18944565       1.8045684      1053716.4     -17890849       636.49215      636.49215      636.49215      2181.7539      2818.2461      2181.7539      2818.2461      2181.7539      2818.2461      2.5785714e+08  0.5            8105000        0              0              0              0
Averages over the last 501 of 1001 rows, steps 16305000 to 16405000:
Temp Press PotEng Density KinEng TotEng Lx Ly Lz Xlo Xhi Ylo Yhi Zlo Zhi Volume Dt
369988 642.687 -1.84029e+07 1.80457 1.09735e+06 -1.73056e+07 636.492 636.492 636.492 2181.75 2818.25 2181.75 2818.25 2181.75 2818.25 2.57857e+08 0.5
Loop time of 15.9895 on 4 procs for 200000 steps with 996 atoms

unfix 3

fix 4 all nvt temp 370000 300 100.0

run 100000
Generated 0 of 1 mixed pair_coeff terms from geometric mixing rule
Step          Temp          Press          PotEng        Density         KinEng         TotEng           Lx             Ly             Lz            Xlo            Xhi            Ylo            Yhi            Zlo            Zhi           Volume           Dt            Time           CPU           T/CPU          S/CPU         CPULeft
16405000   382532.56      706.39646     -18290341       1.8045684      1134555.6     -17155786       636.49215      636.49215      636.49215      2181.7539      2818.2461      2181.7539      2818.2461      2181.7539      2818.2461      2.5785714e+08  0.5            8205000        0              0              0              0
Averages over the last 251 of 501 rows, steps 16455000 to 16505000:
Temp Press PotEng Density KinEng TotEng Lx Ly Lz Xlo Xhi Ylo Yhi Zlo Zhi Volume Dt
92874.8 -821.391 -1.8775e+07 1.80457 275458 -1.84996e+07 636.492 636.492 636.492 2181.75 2818.25 2181.75 2818.25 2181.75 2818.25 2.57857e+08 0.5
Loop time of 7.86542 on 4 procs for 100000 steps with 996 atoms

unfix 4

fix 5 all npt temp 300 300 $(100.0*dt) iso 1.0 1.0 $(1000.0*dt)
fix 5 all npt temp 300 300 50 iso 1.0 1.0 $(1000.0*dt)
fix 5 all npt temp 300 300 50 iso 1.0 1.0 500

run 300000
Generated 0 of 1 mixed pair_coeff terms from geometric mixing rule
Step          Temp          Press          PotEng        Density         KinEng         TotEng           Lx             Ly             Lz            Xlo            Xhi            Ylo            Yhi            Zlo            Zhi           Volume           Dt            Time           CPU           T/CPU          S/CPU         CPULeft
16505000   1375.1755     -1388.3344     -18977032       1.8045684      4078.6413     -18972954       636.49215      636.49215      636.49215      2181.7539      2818.2461      2181.7539      2818.2461      2181.7539      2818.2461      2.5785714e+08  0.5            8255000        0              0              0              0
Averages over the last 751 of 1501 rows, steps 16655000 to 16805000:
Temp Press PotEng Density KinEng TotEng Lx Ly Lz Xlo Xhi Ylo Yhi Zlo Zhi Volume Dt
311.219 1.34612 -1.99439e+07 1.95377 923.047 -1.99429e+07 619.86 619.86 619.86 2190.07 2809.93 2190.07 2809.93 2190.07 2809.93 2.38168e+08 0.5
Loop time of 28.0085 on 4 procs for 300000 steps with 996 atoms

# run_style
run_style verlet

# write restart
write_restart ./pgnpmf/73/equpmf24.res
System init for write_restart ...
Generated 0 of 1 mixed pair_coeff terms from geometric mixing rule
