LAMMPS (23 Jun 2022 - Update 1)
# Read restart
read_restart ./pgnpmf/73/equpmf35.res
Reading restart file ...
  restart file = 23 Jun 2022, LAMMPS = 23 Jun 2022
  restoring atom style atomic from restart
  orthogonal box = (2202.1357 2202.1357 2202.1357) to (2797.8643 2797.8643 2797.8643)
  restoring pair style table from restart
  996 atoms
  read_restart CPU = 0.004 seconds

# Settings

pair_style table spline 9941

pair_coeff 1 1 ./pgnpmf/N20.txt DE_GNP 75.6
pair_coeff 2 2 ./pgnpmf/N100.txt DE_GNP 115.92
pair_coeff 1 2 ./pgnpmf/mixed_potential.txt DE_GNP 95.66

#Neigh_list Calc Frequency

neigh_modify delay 0 every 1 check yes

# Saving Frequency (50 frames)

variable ts_save equal 5000

# Dump
#dump_modify 1 first no sort id
#dump 2 all cfg 50000 ./equilibration/trajectory/ovito/dumpgen.tens_*.cfg mass type xs ys zs fx fy fz

# thermo_style
thermo_style custom step temp press pe density ke etotal lx ly lz xlo xhi ylo yhi zlo zhi vol dt time cpu tpcpu spcpu cpuremain

# run info
timestep 0.5
thermo 200

# fix

fix 1 all momentum 1000 linear 1 1 1 angular
variable T equal 300
fix 2 all nvt temp 300 370000 100.0

run 100000
Generated 0 of 1 mixed pair_coeff terms from geometric mixing rule
Unused restart file global fix info:
  fix style: npt, fix ID: 5
  update every 1 steps, delay 0 steps, check yes
Step          Temp          Press          PotEng        Density         KinEng         TotEng           Lx             Ly             Lz            Xlo            Xhi            Ylo            Yhi            Zlo            Zhi           Volume           Dt            Time           CPU           T/CPU          S/CPU         CPULeft
24505000   310.84917      6.8267998     -21513939       2.2009343      921.9494      -21513017       595.72864      595.72864      595.72864      2202.1357      2797.8643      2202.1357      2797.8643      2202.1357      2797.8643      2.1141969e+08  0.5            12255000       0              0              0              0
Averages over the last 251 of 501 rows, steps 24555000 to 24605000:
Temp Press PotEng Density KinEng TotEng Lx Ly Lz Xlo Xhi Ylo Yhi Zlo Zhi Volume Dt
277414 2866.2 -2.08005e+07 2.20093 822785 -1.99777e+07 595.729 595.729 595.729 2202.14 2797.86 2202.14 2797.86 2202.14 2797.86 2.1142e+08 0.5
Loop time of 9.41222 on 4 procs for 100000 steps with 996 atoms

unfix 2

fix 3 all nvt temp 370000 370000 $(100.0*dt) #iso 1.0 1.0 $(1000.0*dt)
fix 3 all nvt temp 370000 370000 50

run 200000
Generated 0 of 1 mixed pair_coeff terms from geometric mixing rule
Step          Temp          Press          PotEng        Density         KinEng         TotEng           Lx             Ly             Lz            Xlo            Xhi            Ylo            Yhi            Zlo            Zhi           Volume           Dt            Time           CPU           T/CPU          S/CPU         CPULeft
24605000   370441.48      3652.7751     -20513285       2.2009343      1098694.6     -19414590       595.72864      595.72864      595.72864      2202.1357      2797.8643      2202.1357      2797.8643      2202.1357      2797.8643      2.1141969e+08  0.5            12305000       0              0              0              0
Averages over the last 501 of 1001 rows, steps 24705000 to 24805000:
Temp Press PotEng Density KinEng TotEng Lx Ly Lz Xlo Xhi Ylo Yhi Zlo Zhi Volume Dt
370230 3612.7 -2.05294e+07 2.20093 1.09807e+06 -1.94313e+07 595.729 595.729 595.729 2202.14 2797.86 2202.14 2797.86 2202.14 2797.86 2.1142e+08 0.5
Loop time of 19.1804 on 4 procs for 200000 steps with 996 atoms

unfix 3

fix 4 all nvt temp 370000 300 100.0

run 100000
Generated 0 of 1 mixed pair_coeff terms from geometric mixing rule
Step          Temp          Press          PotEng        Density         KinEng         TotEng           Lx             Ly             Lz            Xlo            Xhi            Ylo            Yhi            Zlo            Zhi           Volume           Dt            Time           CPU           T/CPU          S/CPU         CPULeft
24805000   362040.69      3435.9911     -20626009       2.2009343      1073778.6     -19552231       595.72864      595.72864      595.72864      2202.1357      2797.8643      2202.1357      2797.8643      2202.1357      2797.8643      2.1141969e+08  0.5            12405000       0              0              0              0
Averages over the last 251 of 501 rows, steps 24855000 to 24905000:
Temp Press PotEng Density KinEng TotEng Lx Ly Lz Xlo Xhi Ylo Yhi Zlo Zhi Volume Dt
93036.3 1031.04 -2.1239e+07 2.20093 275937 -2.09631e+07 595.729 595.729 595.729 2202.14 2797.86 2202.14 2797.86 2202.14 2797.86 2.1142e+08 0.5
Loop time of 9.44668 on 4 procs for 100000 steps with 996 atoms

unfix 4

fix 5 all npt temp 300 300 $(100.0*dt) iso 1.0 1.0 $(1000.0*dt)
fix 5 all npt temp 300 300 50 iso 1.0 1.0 $(1000.0*dt)
fix 5 all npt temp 300 300 50 iso 1.0 1.0 500

run 300000
Generated 0 of 1 mixed pair_coeff terms from geometric mixing rule
Step          Temp          Press          PotEng        Density         KinEng         TotEng           Lx             Ly             Lz            Xlo            Xhi            Ylo            Yhi            Zlo            Zhi           Volume           Dt            Time           CPU           T/CPU          S/CPU         CPULeft
24905000   1384.8306      88.614127     -21493344       2.2009343      4107.2774     -21489237       595.72864      595.72864      595.72864      2202.1357      2797.8643      2202.1357      2797.8643      2202.1357      2797.8643      2.1141969e+08  0.5            12455000       0              0              0              0
Averages over the last 751 of 1501 rows, steps 25055000 to 25205000:
Temp Press PotEng Density KinEng TotEng Lx Ly Lz Xlo Xhi Ylo Yhi Zlo Zhi Volume Dt
300.07 1.34374 -2.15798e+07 2.20231 889.98 -2.1579e+07 595.604 595.604 595.604 2202.2 2797.8 2202.2 2797.8 2202.2 2797.8 2.11287e+08 0.5
Loop time of 32.4385 on 4 procs for 300000 steps with 996 atoms

# run_style
run_style verlet

# write restart
write_restart ./pgnpmf/73/equpmf36.res
System init for write_restart ...
Generated 0 of 1 mixed pair_coeff terms from geometric mixing rule
