LAMMPS (23 Jun 2022 - Update 1)
# Read restart
read_restart ./pgnpmf/73/equpmf63.res
Reading restart file ...
  restart file = 23 Jun 2022, LAMMPS = 23 Jun 2022
  restoring atom style atomic from restart
  orthogonal box = (2202.3299 2202.3299 2202.3299) to (2797.6701 2797.6701 2797.6701)
  restoring pair style table from restart
  996 atoms
  read_restart CPU = 0.005 seconds

# Settings

pair_style table spline 9941

pair_coeff 1 1 ./pgnpmf/N20.txt DE_GNP 75.6
pair_coeff 2 2 ./pgnpmf/N100.txt DE_GNP 115.92
pair_coeff 1 2 ./pgnpmf/mixed_potential.txt DE_GNP 95.66

#Neigh_list Calc Frequency

neigh_modify delay 0 every 1 check yes

# Saving Frequency (50 frames)

variable ts_save equal 5000

# Dump
#dump_modify 1 first no sort id
#dump 2 all cfg 50000 ./equilibration/trajectory/ovito/dumpgen.tens_*.cfg mass type xs ys zs fx fy fz

# thermo_style
thermo_style custom step temp press pe density ke etotal lx ly lz xlo xhi ylo yhi zlo zhi vol dt time cpu tpcpu spcpu cpuremain

# run info
timestep 0.5
thermo 200

# fix

fix 1 all momentum 1000 linear 1 1 1 angular
variable T equal 300
fix 2 all nvt temp 300 370000 100.0

run 100000
Generated 0 of 1 mixed pair_coeff terms from geometric mixing rule
Unused restart file global fix info:
  fix style: npt, fix ID: 5
  update every 1 steps, delay 0 steps, check yes
Step          Temp          Press          PotEng        Density         KinEng         TotEng           Lx             Ly             Lz            Xlo            Xhi            Ylo            Yhi            Zlo            Zhi           Volume           Dt            Time           CPU           T/CPU          S/CPU         CPULeft
44105000   296.18207     -3.4367288     -21704445       2.2052444      878.44817     -21703566       595.34027      595.34027      595.34027      2202.3299      2797.6701      2202.3299      2797.6701      2202.3299      2797.6701      2.1100648e+08  0.5            22055000       0              0              0              0
Averages over the last 251 of 501 rows, steps 44155000 to 44205000:
Temp Press PotEng Density KinEng TotEng Lx Ly Lz Xlo Xhi Ylo Yhi Zlo Zhi Volume Dt
277246 3047.09 -2.08234e+07 2.20524 822286 -2.00011e+07 595.34 595.34 595.34 2202.33 2797.67 2202.33 2797.67 2202.33 2797.67 2.11006e+08 0.5
Loop time of 9.01927 on 4 procs for 100000 steps with 996 atoms

unfix 2

fix 3 all nvt temp 370000 370000 $(100.0*dt) #iso 1.0 1.0 $(1000.0*dt)
fix 3 all nvt temp 370000 370000 50

run 200000
Generated 0 of 1 mixed pair_coeff terms from geometric mixing rule
Step          Temp          Press          PotEng        Density         KinEng         TotEng           Lx             Ly             Lz            Xlo            Xhi            Ylo            Yhi            Zlo            Zhi           Volume           Dt            Time           CPU           T/CPU          S/CPU         CPULeft
44205000   373755.66      3795.3164     -20592945       2.2052444      1108524.1     -19484421       595.34027      595.34027      595.34027      2202.3299      2797.6701      2202.3299      2797.6701      2202.3299      2797.6701      2.1100648e+08  0.5            22105000       0              0              0              0
Averages over the last 501 of 1001 rows, steps 44305000 to 44405000:
Temp Press PotEng Density KinEng TotEng Lx Ly Lz Xlo Xhi Ylo Yhi Zlo Zhi Volume Dt
369879 3688.81 -2.05015e+07 2.20524 1.09703e+06 -1.94045e+07 595.34 595.34 595.34 2202.33 2797.67 2202.33 2797.67 2202.33 2797.67 2.11006e+08 0.5
Loop time of 18.0854 on 4 procs for 200000 steps with 996 atoms

unfix 3

fix 4 all nvt temp 370000 300 100.0

run 100000
Generated 0 of 1 mixed pair_coeff terms from geometric mixing rule
Step          Temp          Press          PotEng        Density         KinEng         TotEng           Lx             Ly             Lz            Xlo            Xhi            Ylo            Yhi            Zlo            Zhi           Volume           Dt            Time           CPU           T/CPU          S/CPU         CPULeft
44405000   355388.55      3749.9405     -20487991       2.2052444      1054049       -19433942       595.34027      595.34027      595.34027      2202.3299      2797.6701      2202.3299      2797.6701      2202.3299      2797.6701      2.1100648e+08  0.5            22205000       0              0              0              0
Averages over the last 251 of 501 rows, steps 44455000 to 44505000:
Temp Press PotEng Density KinEng TotEng Lx Ly Lz Xlo Xhi Ylo Yhi Zlo Zhi Volume Dt
93028.4 1073.72 -2.12509e+07 2.20524 275914 -2.0975e+07 595.34 595.34 595.34 2202.33 2797.67 2202.33 2797.67 2202.33 2797.67 2.11006e+08 0.5
Loop time of 8.96095 on 4 procs for 100000 steps with 996 atoms

unfix 4

fix 5 all npt temp 300 300 $(100.0*dt) iso 1.0 1.0 $(1000.0*dt)
fix 5 all npt temp 300 300 50 iso 1.0 1.0 $(1000.0*dt)
fix 5 all npt temp 300 300 50 iso 1.0 1.0 500

run 300000
Generated 0 of 1 mixed pair_coeff terms from geometric mixing rule
Step          Temp          Press          PotEng        Density         KinEng         TotEng           Lx             Ly             Lz            Xlo            Xhi            Ylo            Yhi            Zlo            Zhi           Volume           Dt            Time           CPU           T/CPU          S/CPU         CPULeft
44505000   1399.9336      152.08244     -21491831       2.2052444      4152.0715     -21487679       595.34027      595.34027      595.34027      2202.3299      2797.6701      2202.3299      2797.6701      2202.3299      2797.6701      2.1100648e+08  0.5            22255000       0              0              0              0
Averages over the last 751 of 1501 rows, steps 44655000 to 44805000:
Temp Press PotEng Density KinEng TotEng Lx Ly Lz Xlo Xhi Ylo Yhi Zlo Zhi Volume Dt
300.259 1.13616 -2.14869e+07 2.20253 890.541 -2.1486e+07 595.584 595.584 595.584 2202.21 2797.79 2202.21 2797.79 2202.21 2797.79 2.11266e+08 0.5
Loop time of 30.8285 on 4 procs for 300000 steps with 996 atoms

# run_style
run_style verlet

# write restart
write_restart ./pgnpmf/73/equpmf64.res
System init for write_restart ...
Generated 0 of 1 mixed pair_coeff terms from geometric mixing rule
