LAMMPS (23 Jun 2022 - Update 1)
# Read restart
read_restart ./pgnpmf/73/equpmf44.res
Reading restart file ...
  restart file = 23 Jun 2022, LAMMPS = 23 Jun 2022
  restoring atom style atomic from restart
  orthogonal box = (2202.36 2202.36 2202.36) to (2797.64 2797.64 2797.64)
  restoring pair style table from restart
  996 atoms
  read_restart CPU = 0.004 seconds

# Settings

pair_style table spline 9941

pair_coeff 1 1 ./pgnpmf/N20.txt DE_GNP 75.6
pair_coeff 2 2 ./pgnpmf/N100.txt DE_GNP 115.92
pair_coeff 1 2 ./pgnpmf/mixed_potential.txt DE_GNP 95.66

#Neigh_list Calc Frequency

neigh_modify delay 0 every 1 check yes

# Saving Frequency (50 frames)

variable ts_save equal 5000

# Dump
#dump_modify 1 first no sort id
#dump 2 all cfg 50000 ./equilibration/trajectory/ovito/dumpgen.tens_*.cfg mass type xs ys zs fx fy fz

# thermo_style
thermo_style custom step temp press pe density ke etotal lx ly lz xlo xhi ylo yhi zlo zhi vol dt time cpu tpcpu spcpu cpuremain

# run info
timestep 0.5
thermo 200

# fix

fix 1 all momentum 1000 linear 1 1 1 angular
variable T equal 300
fix 2 all nvt temp 300 370000 100.0

run 100000
Generated 0 of 1 mixed pair_coeff terms from geometric mixing rule
Unused restart file global fix info:
  fix style: npt, fix ID: 5
  update every 1 steps, delay 0 steps, check yes
Step          Temp          Press          PotEng        Density         KinEng         TotEng           Lx             Ly             Lz            Xlo            Xhi            Ylo            Yhi            Zlo            Zhi           Volume           Dt            Time           CPU           T/CPU          S/CPU         CPULeft
30805000   293.49379      11.288027     -21574667       2.2059152      870.47499     -21573796       595.27993      595.27993      595.27993      2202.36        2797.64        2202.36        2797.64        2202.36        2797.64        2.1094232e+08  0.5            15405000       0              0              0              0
Averages over the last 251 of 501 rows, steps 30855000 to 30905000:
Temp Press PotEng Density KinEng TotEng Lx Ly Lz Xlo Xhi Ylo Yhi Zlo Zhi Volume Dt
277308 2862.73 -2.07953e+07 2.20592 822470 -1.99728e+07 595.28 595.28 595.28 2202.36 2797.64 2202.36 2797.64 2202.36 2797.64 2.10942e+08 0.5
Loop time of 9.24082 on 4 procs for 100000 steps with 996 atoms

unfix 2

fix 3 all nvt temp 370000 370000 $(100.0*dt) #iso 1.0 1.0 $(1000.0*dt)
fix 3 all nvt temp 370000 370000 50

run 200000
Generated 0 of 1 mixed pair_coeff terms from geometric mixing rule
Step          Temp          Press          PotEng        Density         KinEng         TotEng           Lx             Ly             Lz            Xlo            Xhi            Ylo            Yhi            Zlo            Zhi           Volume           Dt            Time           CPU           T/CPU          S/CPU         CPULeft
30905000   394672.66      3579.2946     -20582595       2.2059152      1170562       -19412033       595.27993      595.27993      595.27993      2202.36        2797.64        2202.36        2797.64        2202.36        2797.64        2.1094232e+08  0.5            15455000       0              0              0              0
Averages over the last 501 of 1001 rows, steps 31005000 to 31105000:
Temp Press PotEng Density KinEng TotEng Lx Ly Lz Xlo Xhi Ylo Yhi Zlo Zhi Volume Dt
369804 3641.39 -2.05539e+07 2.20592 1.0968e+06 -1.94571e+07 595.28 595.28 595.28 2202.36 2797.64 2202.36 2797.64 2202.36 2797.64 2.10942e+08 0.5
Loop time of 18.8347 on 4 procs for 200000 steps with 996 atoms

unfix 3

fix 4 all nvt temp 370000 300 100.0

run 100000
Generated 0 of 1 mixed pair_coeff terms from geometric mixing rule
Step          Temp          Press          PotEng        Density         KinEng         TotEng           Lx             Ly             Lz            Xlo            Xhi            Ylo            Yhi            Zlo            Zhi           Volume           Dt            Time           CPU           T/CPU          S/CPU         CPULeft
31105000   364261         3536.4529     -20589321       2.2059152      1080363.9     -19508957       595.27993      595.27993      595.27993      2202.36        2797.64        2202.36        2797.64        2202.36        2797.64        2.1094232e+08  0.5            15555000       0              0              0              0
Averages over the last 251 of 501 rows, steps 31155000 to 31205000:
Temp Press PotEng Density KinEng TotEng Lx Ly Lz Xlo Xhi Ylo Yhi Zlo Zhi Volume Dt
93235.9 1046.99 -2.12819e+07 2.20592 276529 -2.10053e+07 595.28 595.28 595.28 2202.36 2797.64 2202.36 2797.64 2202.36 2797.64 2.10942e+08 0.5
Loop time of 9.35536 on 4 procs for 100000 steps with 996 atoms

unfix 4

fix 5 all npt temp 300 300 $(100.0*dt) iso 1.0 1.0 $(1000.0*dt)
fix 5 all npt temp 300 300 50 iso 1.0 1.0 $(1000.0*dt)
fix 5 all npt temp 300 300 50 iso 1.0 1.0 500

run 300000
Generated 0 of 1 mixed pair_coeff terms from geometric mixing rule
Step          Temp          Press          PotEng        Density         KinEng         TotEng           Lx             Ly             Lz            Xlo            Xhi            Ylo            Yhi            Zlo            Zhi           Volume           Dt            Time           CPU           T/CPU          S/CPU         CPULeft
31205000   1385.3854      126.49986     -21533734       2.2059152      4108.9229     -21529625       595.27993      595.27993      595.27993      2202.36        2797.64        2202.36        2797.64        2202.36        2797.64        2.1094232e+08  0.5            15605000       0              0              0              0
Averages over the last 751 of 1501 rows, steps 31355000 to 31505000:
Temp Press PotEng Density KinEng TotEng Lx Ly Lz Xlo Xhi Ylo Yhi Zlo Zhi Volume Dt
300.19 0.804233 -2.15868e+07 2.2057 890.335 -2.15859e+07 595.299 595.299 595.299 2202.35 2797.65 2202.35 2797.65 2202.35 2797.65 2.10963e+08 0.5
Loop time of 31.9001 on 4 procs for 300000 steps with 996 atoms

# run_style
run_style verlet

# write restart
write_restart ./pgnpmf/73/equpmf45.res
System init for write_restart ...
Generated 0 of 1 mixed pair_coeff terms from geometric mixing rule
