LAMMPS (23 Jun 2022 - Update 1)
# Read restart
read_restart ./pgnpmf/73/equpmf52.res
Reading restart file ...
  restart file = 23 Jun 2022, LAMMPS = 23 Jun 2022
  restoring atom style atomic from restart
  orthogonal box = (2202.0048 2202.0048 2202.0048) to (2797.9952 2797.9952 2797.9952)
  restoring pair style table from restart
  996 atoms
  read_restart CPU = 0.004 seconds

# Settings

pair_style table spline 9941

pair_coeff 1 1 ./pgnpmf/N20.txt DE_GNP 75.6
pair_coeff 2 2 ./pgnpmf/N100.txt DE_GNP 115.92
pair_coeff 1 2 ./pgnpmf/mixed_potential.txt DE_GNP 95.66

#Neigh_list Calc Frequency

neigh_modify delay 0 every 1 check yes

# Saving Frequency (50 frames)

variable ts_save equal 5000

# Dump
#dump_modify 1 first no sort id
#dump 2 all cfg 50000 ./equilibration/trajectory/ovito/dumpgen.tens_*.cfg mass type xs ys zs fx fy fz

# thermo_style
thermo_style custom step temp press pe density ke etotal lx ly lz xlo xhi ylo yhi zlo zhi vol dt time cpu tpcpu spcpu cpuremain

# run info
timestep 0.5
thermo 200

# fix

fix 1 all momentum 1000 linear 1 1 1 angular
variable T equal 300
fix 2 all nvt temp 300 370000 100.0

run 100000
Generated 0 of 1 mixed pair_coeff terms from geometric mixing rule
Unused restart file global fix info:
  fix style: npt, fix ID: 5
  update every 1 steps, delay 0 steps, check yes
Step          Temp          Press          PotEng        Density         KinEng         TotEng           Lx             Ly             Lz            Xlo            Xhi            Ylo            Yhi            Zlo            Zhi           Volume           Dt            Time           CPU           T/CPU          S/CPU         CPULeft
36405000   301.39851     -4.8670383     -21491689       2.198035       893.91964     -21490795       595.99046      595.99046      595.99046      2202.0048      2797.9952      2202.0048      2797.9952      2202.0048      2797.9952      2.1169857e+08  0.5            18205000       0              0              0              0
Averages over the last 251 of 501 rows, steps 36455000 to 36505000:
Temp Press PotEng Density KinEng TotEng Lx Ly Lz Xlo Xhi Ylo Yhi Zlo Zhi Volume Dt
277705 2910.92 -2.07346e+07 2.19803 823648 -1.9911e+07 595.99 595.99 595.99 2202 2798 2202 2798 2202 2798 2.11699e+08 0.5
Loop time of 9.48877 on 4 procs for 100000 steps with 996 atoms

unfix 2

fix 3 all nvt temp 370000 370000 $(100.0*dt) #iso 1.0 1.0 $(1000.0*dt)
fix 3 all nvt temp 370000 370000 50

run 200000
Generated 0 of 1 mixed pair_coeff terms from geometric mixing rule
Step          Temp          Press          PotEng        Density         KinEng         TotEng           Lx             Ly             Lz            Xlo            Xhi            Ylo            Yhi            Zlo            Zhi           Volume           Dt            Time           CPU           T/CPU          S/CPU         CPULeft
36505000   357214.91      3553.2576     -20442012       2.198035       1059465.9     -19382546       595.99046      595.99046      595.99046      2202.0048      2797.9952      2202.0048      2797.9952      2202.0048      2797.9952      2.1169857e+08  0.5            18255000       0              0              0              0
Averages over the last 501 of 1001 rows, steps 36605000 to 36705000:
Temp Press PotEng Density KinEng TotEng Lx Ly Lz Xlo Xhi Ylo Yhi Zlo Zhi Volume Dt
370064 3567.95 -2.05016e+07 2.19803 1.09757e+06 -1.9404e+07 595.99 595.99 595.99 2202 2798 2202 2798 2202 2798 2.11699e+08 0.5
Loop time of 19.1845 on 4 procs for 200000 steps with 996 atoms

unfix 3

fix 4 all nvt temp 370000 300 100.0

run 100000
Generated 0 of 1 mixed pair_coeff terms from geometric mixing rule
Step          Temp          Press          PotEng        Density         KinEng         TotEng           Lx             Ly             Lz            Xlo            Xhi            Ylo            Yhi            Zlo            Zhi           Volume           Dt            Time           CPU           T/CPU          S/CPU         CPULeft
36705000   362060.3       3650.461      -20496651       2.198035       1073836.8     -19422815       595.99046      595.99046      595.99046      2202.0048      2797.9952      2202.0048      2797.9952      2202.0048      2797.9952      2.1169857e+08  0.5            18355000       0              0              0              0
Averages over the last 251 of 501 rows, steps 36755000 to 36805000:
Temp Press PotEng Density KinEng TotEng Lx Ly Lz Xlo Xhi Ylo Yhi Zlo Zhi Volume Dt
93191.7 964.585 -2.12807e+07 2.19803 276398 -2.10043e+07 595.99 595.99 595.99 2202 2798 2202 2798 2202 2798 2.11699e+08 0.5
Loop time of 9.56342 on 4 procs for 100000 steps with 996 atoms

unfix 4

fix 5 all npt temp 300 300 $(100.0*dt) iso 1.0 1.0 $(1000.0*dt)
fix 5 all npt temp 300 300 50 iso 1.0 1.0 $(1000.0*dt)
fix 5 all npt temp 300 300 50 iso 1.0 1.0 500

run 300000
Generated 0 of 1 mixed pair_coeff terms from geometric mixing rule
Step          Temp          Press          PotEng        Density         KinEng         TotEng           Lx             Ly             Lz            Xlo            Xhi            Ylo            Yhi            Zlo            Zhi           Volume           Dt            Time           CPU           T/CPU          S/CPU         CPULeft
36805000   1384.4474      24.455269     -21556327       2.198035       4106.1408     -21552221       595.99046      595.99046      595.99046      2202.0048      2797.9952      2202.0048      2797.9952      2202.0048      2797.9952      2.1169857e+08  0.5            18405000       0              0              0              0
Averages over the last 751 of 1501 rows, steps 36955000 to 37105000:
Temp Press PotEng Density KinEng TotEng Lx Ly Lz Xlo Xhi Ylo Yhi Zlo Zhi Volume Dt
300.243 1.27687 -2.16044e+07 2.20341 890.491 -2.16035e+07 595.506 595.506 595.506 2202.25 2797.75 2202.25 2797.75 2202.25 2797.75 2.11182e+08 0.5
Loop time of 32.5497 on 4 procs for 300000 steps with 996 atoms

# run_style
run_style verlet

# write restart
write_restart ./pgnpmf/73/equpmf53.res
System init for write_restart ...
Generated 0 of 1 mixed pair_coeff terms from geometric mixing rule
