LAMMPS (23 Jun 2022 - Update 1)

# Init #
dimension   3
boundary    p p p
units       real
atom_style  atomic

# Atom Definition #
read_data ./pgnpmf/01000/dat01000.dat
Reading data file ...
  orthogonal box = (-100 -100 -100) to (5100 5100 5100)
  reading atoms ...
  1000 atoms

# Settings #
pair_style table spline 9941

pair_coeff 1 1 ./pgnpmf/N20.txt DE_GNP 75.6
pair_coeff 2 2 ./pgnpmf/N100.txt DE_GNP 115.92
pair_coeff 1 2 ./pgnpmf/mixed_potential.txt DE_GNP 95.66

# Neighbor list calc frequency #
neigh_modify delay 0 every 1 check yes

# Saving frequency #
variable ts_save equal floor(5000*0.01)

# Dump #
dump 1 all custom 500 ./pgnpmf/01000/generation/trajectory/trajectory_1_1.gen.custom type x y z ix iy iz
dump_modify 1 first no sort id

# Fix #
fix 1 all momentum 1000 linear 1 1 1 angular

variable T equal 300

# Velocity #
velocity all create 300 12345 mom yes rot yes dist gaussian

fix 2 all nvt temp 300 300 100.0

# Thermo #
thermo_style custom step temp press pe ke etotal epair lx ly lz xlo xhi ylo yhi zlo zhi vol density dt time

# Run stle #
run_style verlet

# Run #
timestep 1
thermo 50
run 5000
Generated 0 of 1 mixed pair_coeff terms from geometric mixing rule
  update every 1 steps, delay 0 steps, check yes
Step          Temp          Press          PotEng         KinEng         TotEng         E_pair           Lx             Ly             Lz            Xlo            Xhi            Ylo            Yhi            Zlo            Zhi           Volume        Density           Dt            Time
0   300            0.0002904316   0              893.34877      893.34877      0              5200           5200           5200          -100            5100          -100            5100          -100            5100           1.40608e+11    0.0049842976   1              0
Averages over the last 51 of 101 rows, steps 2500 to 5000:
Temp Press PotEng KinEng TotEng E_pair Lx Ly Lz Xlo Xhi Ylo Yhi Zlo Zhi Volume Density Dt
299.998 0.00029043 0 893.343 893.343 0 5200 5200 5200 -100 5100 -100 5100 -100 5100 1.40608e+11 0.0049843 1
Loop time of 0.318431 on 1 procs for 5000 steps with 1000 atoms

# write restart #
write_restart ./pgnpmf/01000/genpmf.res
System init for write_restart ...
Generated 0 of 1 mixed pair_coeff terms from geometric mixing rule
