LAMMPS (23 Jun 2022 - Update 1)
# Read restart
read_restart ./pgnpmf/01000/equpmf141.res
Reading restart file ...
  restart file = 23 Jun 2022, LAMMPS = 23 Jun 2022
  restoring atom style atomic from restart
  orthogonal box = (2113.1538 2113.1538 2113.1538) to (2886.8462 2886.8462 2886.8462)
  restoring pair style table from restart
  1000 atoms
  read_restart CPU = 0.052 seconds

# Settings

pair_style table spline 9941

pair_coeff 1 1 ./pgnpmf/N20.txt DE_GNP 75.6
pair_coeff 2 2 ./pgnpmf/N100.txt DE_GNP 115.92
pair_coeff 1 2 ./pgnpmf/mixed_potential.txt DE_GNP 95.66

#Neigh_list Calc Frequency

neigh_modify delay 0 every 1 check yes

# Saving Frequency (50 frames)

variable ts_save equal 5000

# Dump
#dump_modify 1 first no sort id
#dump 2 all cfg 50000 ./equilibration/trajectory/ovito/dumpgen.tens_*.cfg mass type xs ys zs fx fy fz

# thermo_style
thermo_style custom step temp press pe density ke etotal lx ly lz xlo xhi ylo yhi zlo zhi vol dt time cpu tpcpu spcpu cpuremain

# run info
timestep 0.1
thermo 200

# fix

fix 1 all momentum 1000 linear 1 1 1 angular
variable T equal 300
fix 2 all nvt temp 300 370000 100.0

run 100000
Generated 0 of 1 mixed pair_coeff terms from geometric mixing rule
Unused restart file global fix info:
  fix style: npt, fix ID: 5
  update every 1 steps, delay 0 steps, check yes
Step          Temp          Press          PotEng        Density         KinEng         TotEng           Lx             Ly             Lz            Xlo            Xhi            Ylo            Yhi            Zlo            Zhi           Volume           Dt            Time           CPU           T/CPU          S/CPU         CPULeft
98705000   305.34535      3.1371569     -60365180       1.5132441      909.26631     -60364270       773.69241      773.69241      773.69241      2113.1538      2886.8462      2113.1538      2886.8462      2113.1538      2886.8462      4.6313223e+08  0.1            23035000       0              0              0              0
Averages over the last 251 of 501 rows, steps 98755000 to 98805000:
Temp Press PotEng Density KinEng TotEng Lx Ly Lz Xlo Xhi Ylo Yhi Zlo Zhi Volume Dt
277250 267.321 -6.03223e+07 1.51324 825604 -5.94967e+07 773.692 773.692 773.692 2113.15 2886.85 2113.15 2886.85 2113.15 2886.85 4.63132e+08 0.1
Loop time of 16.8721 on 1 procs for 100000 steps with 1000 atoms

unfix 2

fix 3 all nvt temp 370000 370000 $(100.0*dt) #iso 1.0 1.0 $(1000.0*dt)
fix 3 all nvt temp 370000 370000 10

run 200000
Generated 0 of 1 mixed pair_coeff terms from geometric mixing rule
Step          Temp          Press          PotEng        Density         KinEng         TotEng           Lx             Ly             Lz            Xlo            Xhi            Ylo            Yhi            Zlo            Zhi           Volume           Dt            Time           CPU           T/CPU          S/CPU         CPULeft
98805000   378969.58      507.47562     -60265158       1.5132441      1128506.7     -59136651       773.69241      773.69241      773.69241      2113.1538      2886.8462      2113.1538      2886.8462      2113.1538      2886.8462      4.6313223e+08  0.1            23045000       0              0              0              0
Averages over the last 501 of 1001 rows, steps 98905000 to 99005000:
Temp Press PotEng Density KinEng TotEng Lx Ly Lz Xlo Xhi Ylo Yhi Zlo Zhi Volume Dt
370226 934.157 -5.98523e+07 1.51324 1.10247e+06 -5.87499e+07 773.692 773.692 773.692 2113.15 2886.85 2113.15 2886.85 2113.15 2886.85 4.63132e+08 0.1
Loop time of 34.051 on 1 procs for 200000 steps with 1000 atoms

unfix 3

fix 4 all nvt temp 370000 300 100.0

run 100000
Generated 0 of 1 mixed pair_coeff terms from geometric mixing rule
Step          Temp          Press          PotEng        Density         KinEng         TotEng           Lx             Ly             Lz            Xlo            Xhi            Ylo            Yhi            Zlo            Zhi           Volume           Dt            Time           CPU           T/CPU          S/CPU         CPULeft
99005000   366046.57      1023.4101     -59746285       1.5132441      1090024.2     -58656261       773.69241      773.69241      773.69241      2113.1538      2886.8462      2113.1538      2886.8462      2113.1538      2886.8462      4.6313223e+08  0.1            23065000       0              0              0              0
Averages over the last 251 of 501 rows, steps 99055000 to 99105000:
Temp Press PotEng Density KinEng TotEng Lx Ly Lz Xlo Xhi Ylo Yhi Zlo Zhi Volume Dt
96531.7 451.371 -5.98816e+07 1.51324 287455 -5.95942e+07 773.692 773.692 773.692 2113.15 2886.85 2113.15 2886.85 2113.15 2886.85 4.63132e+08 0.1
Loop time of 16.9328 on 1 procs for 100000 steps with 1000 atoms

unfix 4

fix 5 all npt temp 300 300 $(100.0*dt) iso 1.0 1.0 $(1000.0*dt)
fix 5 all npt temp 300 300 10 iso 1.0 1.0 $(1000.0*dt)
fix 5 all npt temp 300 300 10 iso 1.0 1.0 100

run 300000
Generated 0 of 1 mixed pair_coeff terms from geometric mixing rule
Step          Temp          Press          PotEng        Density         KinEng         TotEng           Lx             Ly             Lz            Xlo            Xhi            Ylo            Yhi            Zlo            Zhi           Volume           Dt            Time           CPU           T/CPU          S/CPU         CPULeft
99105000   5171.4114      135.99603     -60017671       1.5132441      15399.58      -60002271       773.69241      773.69241      773.69241      2113.1538      2886.8462      2113.1538      2886.8462      2113.1538      2886.8462      4.6313223e+08  0.1            23075000       0              0              0              0
Averages over the last 751 of 1501 rows, steps 99255000 to 99405000:
Temp Press PotEng Density KinEng TotEng Lx Ly Lz Xlo Xhi Ylo Yhi Zlo Zhi Volume Dt
307.125 1.07283 -6.0129e+07 1.51488 914.567 -6.01281e+07 773.414 773.414 773.414 2113.29 2886.71 2113.29 2886.71 2113.29 2886.71 4.62632e+08 0.1
Loop time of 58.7299 on 1 procs for 300000 steps with 1000 atoms

# run_style
run_style verlet

# write restart
write_restart ./pgnpmf/01000/equpmf142.res
System init for write_restart ...
Generated 0 of 1 mixed pair_coeff terms from geometric mixing rule
