LAMMPS (23 Jun 2022 - Update 1)
# Read restart
read_restart ./pgnpmf/01000/equpmf56.res
Reading restart file ...
  restart file = 23 Jun 2022, LAMMPS = 23 Jun 2022
  restoring atom style atomic from restart
  orthogonal box = (1854.2443 1854.2443 1854.2443) to (3145.7557 3145.7557 3145.7557)
  restoring pair style table from restart
  1000 atoms
  read_restart CPU = 0.025 seconds

# Settings

pair_style table spline 9941

pair_coeff 1 1 ./pgnpmf/N20.txt DE_GNP 75.6
pair_coeff 2 2 ./pgnpmf/N100.txt DE_GNP 115.92
pair_coeff 1 2 ./pgnpmf/mixed_potential.txt DE_GNP 95.66

#Neigh_list Calc Frequency

neigh_modify delay 0 every 1 check yes

# Saving Frequency (50 frames)

variable ts_save equal 5000

# Dump
#dump_modify 1 first no sort id
#dump 2 all cfg 50000 ./equilibration/trajectory/ovito/dumpgen.tens_*.cfg mass type xs ys zs fx fy fz

# thermo_style
thermo_style custom step temp press pe density ke etotal lx ly lz xlo xhi ylo yhi zlo zhi vol dt time cpu tpcpu spcpu cpuremain

# run info
timestep 0.1
thermo 200

# fix

fix 1 all momentum 1000 linear 1 1 1 angular
variable T equal 300
fix 2 all nvt temp 300 370000 100.0

run 100000
Generated 0 of 1 mixed pair_coeff terms from geometric mixing rule
Unused restart file global fix info:
  fix style: npt, fix ID: 5
  update every 1 steps, delay 0 steps, check yes
Step          Temp          Press          PotEng        Density         KinEng         TotEng           Lx             Ly             Lz            Xlo            Xhi            Ylo            Yhi            Zlo            Zhi           Volume           Dt            Time           CPU           T/CPU          S/CPU         CPULeft
39205000   309.34599      0.34109233    -40862751       0.32532632     921.17954     -40861830       1291.5115      1291.5115      1291.5115      1854.2443      3145.7557      1854.2443      3145.7557      1854.2443      3145.7557      2.1542435e+09  0.1            17085000       0              0              0              0
Averages over the last 251 of 501 rows, steps 39255000 to 39305000:
Temp Press PotEng Density KinEng TotEng Lx Ly Lz Xlo Xhi Ylo Yhi Zlo Zhi Volume Dt
276841 -11.2155 -4.07675e+07 0.325326 824384 -3.99431e+07 1291.51 1291.51 1291.51 1854.24 3145.76 1854.24 3145.76 1854.24 3145.76 2.15424e+09 0.1
Loop time of 12.1583 on 4 procs for 100000 steps with 1000 atoms

unfix 2

fix 3 all nvt temp 370000 370000 $(100.0*dt) #iso 1.0 1.0 $(1000.0*dt)
fix 3 all nvt temp 370000 370000 10

run 200000
Generated 0 of 1 mixed pair_coeff terms from geometric mixing rule
Step          Temp          Press          PotEng        Density         KinEng         TotEng           Lx             Ly             Lz            Xlo            Xhi            Ylo            Yhi            Zlo            Zhi           Volume           Dt            Time           CPU           T/CPU          S/CPU         CPULeft
39305000   377385.97      40.60326      -40828640       0.32532632     1123791       -39704850       1291.5115      1291.5115      1291.5115      1854.2443      3145.7557      1854.2443      3145.7557      1854.2443      3145.7557      2.1542435e+09  0.1            17095000       0              0              0              0
Averages over the last 501 of 1001 rows, steps 39405000 to 39505000:
Temp Press PotEng Density KinEng TotEng Lx Ly Lz Xlo Xhi Ylo Yhi Zlo Zhi Volume Dt
370038 78.2578 -4.04987e+07 0.325326 1.10191e+06 -3.93968e+07 1291.51 1291.51 1291.51 1854.24 3145.76 1854.24 3145.76 1854.24 3145.76 2.15424e+09 0.1
Loop time of 23.5021 on 4 procs for 200000 steps with 1000 atoms

unfix 3

fix 4 all nvt temp 370000 300 100.0

run 100000
Generated 0 of 1 mixed pair_coeff terms from geometric mixing rule
Step          Temp          Press          PotEng        Density         KinEng         TotEng           Lx             Ly             Lz            Xlo            Xhi            Ylo            Yhi            Zlo            Zhi           Volume           Dt            Time           CPU           T/CPU          S/CPU         CPULeft
39505000   377327.25      56.087725     -40247635       0.32532632     1123616.1     -39124019       1291.5115      1291.5115      1291.5115      1854.2443      3145.7557      1854.2443      3145.7557      1854.2443      3145.7557      2.1542435e+09  0.1            17115000       0              0              0              0
Averages over the last 251 of 501 rows, steps 39555000 to 39605000:
Temp Press PotEng Density KinEng TotEng Lx Ly Lz Xlo Xhi Ylo Yhi Zlo Zhi Volume Dt
95126.7 -115.182 -4.02138e+07 0.325326 283271 -3.99305e+07 1291.51 1291.51 1291.51 1854.24 3145.76 1854.24 3145.76 1854.24 3145.76 2.15424e+09 0.1
Loop time of 11.5623 on 4 procs for 100000 steps with 1000 atoms

unfix 4

fix 5 all npt temp 300 300 $(100.0*dt) iso 1.0 1.0 $(1000.0*dt)
fix 5 all npt temp 300 300 10 iso 1.0 1.0 $(1000.0*dt)
fix 5 all npt temp 300 300 10 iso 1.0 1.0 100

run 300000
Generated 0 of 1 mixed pair_coeff terms from geometric mixing rule
Step          Temp          Press          PotEng        Density         KinEng         TotEng           Lx             Ly             Lz            Xlo            Xhi            Ylo            Yhi            Zlo            Zhi           Volume           Dt            Time           CPU           T/CPU          S/CPU         CPULeft
39605000   5055.9422     -158.43931     -40288832       0.32532632     15055.733     -40273776       1291.5115      1291.5115      1291.5115      1854.2443      3145.7557      1854.2443      3145.7557      1854.2443      3145.7557      2.1542435e+09  0.1            17125000       0              0              0              0
Averages over the last 751 of 1501 rows, steps 39755000 to 39905000:
Temp Press PotEng Density KinEng TotEng Lx Ly Lz Xlo Xhi Ylo Yhi Zlo Zhi Volume Dt
310.503 0.994168 -4.1104e+07 0.337436 924.625 -4.1103e+07 1275.87 1275.87 1275.87 1862.06 3137.94 1862.06 3137.94 1862.06 3137.94 2.07694e+09 0.1
Loop time of 42.9905 on 4 procs for 300000 steps with 1000 atoms

# run_style
run_style verlet

# write restart
write_restart ./pgnpmf/01000/equpmf57.res
System init for write_restart ...
Generated 0 of 1 mixed pair_coeff terms from geometric mixing rule
