LAMMPS (23 Jun 2022 - Update 1)
# Read restart
read_restart ./pgnpmf/01000/equpmf31.res
Reading restart file ...
  restart file = 23 Jun 2022, LAMMPS = 23 Jun 2022
  restoring atom style atomic from restart
  orthogonal box = (1722.8454 1722.8454 1722.8454) to (3277.1546 3277.1546 3277.1546)
  restoring pair style table from restart
  1000 atoms
  read_restart CPU = 0.019 seconds

# Settings

pair_style table spline 9941

pair_coeff 1 1 ./pgnpmf/N20.txt DE_GNP 75.6
pair_coeff 2 2 ./pgnpmf/N100.txt DE_GNP 115.92
pair_coeff 1 2 ./pgnpmf/mixed_potential.txt DE_GNP 95.66

#Neigh_list Calc Frequency

neigh_modify delay 0 every 1 check yes

# Saving Frequency (50 frames)

variable ts_save equal 5000

# Dump
#dump_modify 1 first no sort id
#dump 2 all cfg 50000 ./equilibration/trajectory/ovito/dumpgen.tens_*.cfg mass type xs ys zs fx fy fz

# thermo_style
thermo_style custom step temp press pe density ke etotal lx ly lz xlo xhi ylo yhi zlo zhi vol dt time cpu tpcpu spcpu cpuremain

# run info
timestep 0.5
thermo 200

# fix

fix 1 all momentum 1000 linear 1 1 1 angular
variable T equal 300
fix 2 all nvt temp 300 370000 100.0

run 100000
Generated 0 of 1 mixed pair_coeff terms from geometric mixing rule
Unused restart file global fix info:
  fix style: npt, fix ID: 5
  update every 1 steps, delay 0 steps, check yes
Step          Temp          Press          PotEng        Density         KinEng         TotEng           Lx             Ly             Lz            Xlo            Xhi            Ylo            Yhi            Zlo            Zhi           Volume           Dt            Time           CPU           T/CPU          S/CPU         CPULeft
21705000   305.6519       0.6415386     -32415690       0.1866387      910.17917     -32414780       1554.3093      1554.3093      1554.3093      1722.8454      3277.1546      1722.8454      3277.1546      1722.8454      3277.1546      3.7550204e+09  0.5            10855000       0              0              0              0
Averages over the last 251 of 501 rows, steps 21755000 to 21805000:
Temp Press PotEng Density KinEng TotEng Lx Ly Lz Xlo Xhi Ylo Yhi Zlo Zhi Volume Dt
277442 -0.578506 -3.1877e+07 0.186639 826174 -3.10509e+07 1554.31 1554.31 1554.31 1722.85 3277.15 1722.85 3277.15 1722.85 3277.15 3.75502e+09 0.5
Loop time of 8.64481 on 4 procs for 100000 steps with 1000 atoms

unfix 2

fix 3 all nvt temp 370000 370000 $(100.0*dt) #iso 1.0 1.0 $(1000.0*dt)
fix 3 all nvt temp 370000 370000 50

run 200000
Generated 0 of 1 mixed pair_coeff terms from geometric mixing rule
Step          Temp          Press          PotEng        Density         KinEng         TotEng           Lx             Ly             Lz            Xlo            Xhi            Ylo            Yhi            Zlo            Zhi           Volume           Dt            Time           CPU           T/CPU          S/CPU         CPULeft
21805000   353144.06     -5.7239191     -31628581       0.1866387      1051602.7     -30576978       1554.3093      1554.3093      1554.3093      1722.8454      3277.1546      1722.8454      3277.1546      1722.8454      3277.1546      3.7550204e+09  0.5            10905000       0              0              0              0
Averages over the last 501 of 1001 rows, steps 21905000 to 22005000:
Temp Press PotEng Density KinEng TotEng Lx Ly Lz Xlo Xhi Ylo Yhi Zlo Zhi Volume Dt
369833 5.48607 -3.14677e+07 0.186639 1.1013e+06 -3.03664e+07 1554.31 1554.31 1554.31 1722.85 3277.15 1722.85 3277.15 1722.85 3277.15 3.75502e+09 0.5
Loop time of 17.2218 on 4 procs for 200000 steps with 1000 atoms

unfix 3

fix 4 all nvt temp 370000 300 100.0

run 100000
Generated 0 of 1 mixed pair_coeff terms from geometric mixing rule
Step          Temp          Press          PotEng        Density         KinEng         TotEng           Lx             Ly             Lz            Xlo            Xhi            Ylo            Yhi            Zlo            Zhi           Volume           Dt            Time           CPU           T/CPU          S/CPU         CPULeft
22005000   364358.11      14.87971      -31644375       0.1866387      1084996.2     -30559379       1554.3093      1554.3093      1554.3093      1722.8454      3277.1546      1722.8454      3277.1546      1722.8454      3277.1546      3.7550204e+09  0.5            11005000       0              0              0              0
Averages over the last 251 of 501 rows, steps 22055000 to 22105000:
Temp Press PotEng Density KinEng TotEng Lx Ly Lz Xlo Xhi Ylo Yhi Zlo Zhi Volume Dt
93141.9 -12.8996 -3.25074e+07 0.186639 277361 -3.22301e+07 1554.31 1554.31 1554.31 1722.85 3277.15 1722.85 3277.15 1722.85 3277.15 3.75502e+09 0.5
Loop time of 8.53338 on 4 procs for 100000 steps with 1000 atoms

unfix 4

fix 5 all npt temp 300 300 $(100.0*dt) iso 1.0 1.0 $(1000.0*dt)
fix 5 all npt temp 300 300 50 iso 1.0 1.0 $(1000.0*dt)
fix 5 all npt temp 300 300 50 iso 1.0 1.0 500

run 300000
Generated 0 of 1 mixed pair_coeff terms from geometric mixing rule
Step          Temp          Press          PotEng        Density         KinEng         TotEng           Lx             Ly             Lz            Xlo            Xhi            Ylo            Yhi            Zlo            Zhi           Volume           Dt            Time           CPU           T/CPU          S/CPU         CPULeft
22105000   1353.8141     -15.221871     -32897695       0.1866387      4031.4273     -32893664       1554.3093      1554.3093      1554.3093      1722.8454      3277.1546      1722.8454      3277.1546      1722.8454      3277.1546      3.7550204e+09  0.5            11055000       0              0              0              0
Averages over the last 751 of 1501 rows, steps 22255000 to 22405000:
Temp Press PotEng Density KinEng TotEng Lx Ly Lz Xlo Xhi Ylo Yhi Zlo Zhi Volume Dt
305.931 0.996847 -3.31971e+07 0.189705 911.009 -3.31962e+07 1545.89 1545.89 1545.89 1727.05 3272.95 1727.05 3272.95 1727.05 3272.95 3.69434e+09 0.5
Loop time of 32.1403 on 4 procs for 300000 steps with 1000 atoms

# run_style
run_style verlet

# write restart
write_restart ./pgnpmf/01000/equpmf32.res
System init for write_restart ...
Generated 0 of 1 mixed pair_coeff terms from geometric mixing rule
