LAMMPS (23 Jun 2022 - Update 1)
# Read restart
read_restart ./pgnpmf/01000/equpmf7.res
Reading restart file ...
  restart file = 23 Jun 2022, LAMMPS = 23 Jun 2022
  restoring atom style atomic from restart
  orthogonal box = (1463.0993 1463.0993 1463.0993) to (3536.9007 3536.9007 3536.9007)
  restoring pair style table from restart
  1000 atoms
  read_restart CPU = 0.013 seconds

# Settings

pair_style table spline 9941

pair_coeff 1 1 ./pgnpmf/N20.txt DE_GNP 75.6
pair_coeff 2 2 ./pgnpmf/N100.txt DE_GNP 115.92
pair_coeff 1 2 ./pgnpmf/mixed_potential.txt DE_GNP 95.66

#Neigh_list Calc Frequency

neigh_modify delay 0 every 1 check yes

# Saving Frequency (50 frames)

variable ts_save equal 5000

# Dump
#dump_modify 1 first no sort id
#dump 2 all cfg 50000 ./equilibration/trajectory/ovito/dumpgen.tens_*.cfg mass type xs ys zs fx fy fz

# thermo_style
thermo_style custom step temp press pe density ke etotal lx ly lz xlo xhi ylo yhi zlo zhi vol dt time cpu tpcpu spcpu cpuremain

# run info
timestep 0.5
thermo 200

# fix

fix 1 all momentum 1000 linear 1 1 1 angular
variable T equal 300
fix 2 all nvt temp 300 370000 100.0

run 100000
Generated 0 of 1 mixed pair_coeff terms from geometric mixing rule
Unused restart file global fix info:
  fix style: npt, fix ID: 5
  update every 1 steps, delay 0 steps, check yes
Step          Temp          Press          PotEng        Density         KinEng         TotEng           Lx             Ly             Lz            Xlo            Xhi            Ylo            Yhi            Zlo            Zhi           Volume           Dt            Time           CPU           T/CPU          S/CPU         CPULeft
4905000   314.73949      1.0374091     -17804882       0.078580081    937.24047     -17803945       2073.8015      2073.8015      2073.8015      1463.0993      3536.9007      1463.0993      3536.9007      1463.0993      3536.9007      8.9186993e+09  0.5            2455000        0              0              0              0
Averages over the last 251 of 501 rows, steps 4955000 to 5005000:
Temp Press PotEng Density KinEng TotEng Lx Ly Lz Xlo Xhi Ylo Yhi Zlo Zhi Volume Dt
277596 4.35873 -1.85189e+07 0.0785801 826634 -1.76923e+07 2073.8 2073.8 2073.8 1463.1 3536.9 1463.1 3536.9 1463.1 3536.9 8.9187e+09 0.5
Loop time of 6.22757 on 4 procs for 100000 steps with 1000 atoms

unfix 2

fix 3 all nvt temp 370000 370000 $(100.0*dt) #iso 1.0 1.0 $(1000.0*dt)
fix 3 all nvt temp 370000 370000 50

run 200000
Generated 0 of 1 mixed pair_coeff terms from geometric mixing rule
Step          Temp          Press          PotEng        Density         KinEng         TotEng           Lx             Ly             Lz            Xlo            Xhi            Ylo            Yhi            Zlo            Zhi           Volume           Dt            Time           CPU           T/CPU          S/CPU         CPULeft
5005000   352926.48      1.9947189     -18320711       0.078580081    1050954.8     -17269756       2073.8015      2073.8015      2073.8015      1463.0993      3536.9007      1463.0993      3536.9007      1463.0993      3536.9007      8.9186993e+09  0.5            2505000        0              0              0              0
Averages over the last 501 of 1001 rows, steps 5105000 to 5205000:
Temp Press PotEng Density KinEng TotEng Lx Ly Lz Xlo Xhi Ylo Yhi Zlo Zhi Volume Dt
369901 1.87027 -1.81902e+07 0.0785801 1.1015e+06 -1.70887e+07 2073.8 2073.8 2073.8 1463.1 3536.9 1463.1 3536.9 1463.1 3536.9 8.9187e+09 0.5
Loop time of 12.9682 on 4 procs for 200000 steps with 1000 atoms

unfix 3

fix 4 all nvt temp 370000 300 100.0

run 100000
Generated 0 of 1 mixed pair_coeff terms from geometric mixing rule
Step          Temp          Press          PotEng        Density         KinEng         TotEng           Lx             Ly             Lz            Xlo            Xhi            Ylo            Yhi            Zlo            Zhi           Volume           Dt            Time           CPU           T/CPU          S/CPU         CPULeft
5205000   363139.17      0.098984167   -18429858       0.078580081    1081366.4     -17348491       2073.8015      2073.8015      2073.8015      1463.0993      3536.9007      1463.0993      3536.9007      1463.0993      3536.9007      8.9186993e+09  0.5            2605000        0              0              0              0
Averages over the last 251 of 501 rows, steps 5255000 to 5305000:
Temp Press PotEng Density KinEng TotEng Lx Ly Lz Xlo Xhi Ylo Yhi Zlo Zhi Volume Dt
93004.6 -10.9123 -1.97394e+07 0.0785801 276952 -1.94624e+07 2073.8 2073.8 2073.8 1463.1 3536.9 1463.1 3536.9 1463.1 3536.9 8.9187e+09 0.5
Loop time of 6.43813 on 4 procs for 100000 steps with 1000 atoms

unfix 4

fix 5 all npt temp 300 300 $(100.0*dt) iso 1.0 1.0 $(1000.0*dt)
fix 5 all npt temp 300 300 50 iso 1.0 1.0 $(1000.0*dt)
fix 5 all npt temp 300 300 50 iso 1.0 1.0 500

run 300000
Generated 0 of 1 mixed pair_coeff terms from geometric mixing rule
Step          Temp          Press          PotEng        Density         KinEng         TotEng           Lx             Ly             Lz            Xlo            Xhi            Ylo            Yhi            Zlo            Zhi           Volume           Dt            Time           CPU           T/CPU          S/CPU         CPULeft
5305000   1353.8234     -12.769242     -20289507       0.078580081    4031.4549     -20285476       2073.8015      2073.8015      2073.8015      1463.0993      3536.9007      1463.0993      3536.9007      1463.0993      3536.9007      8.9186993e+09  0.5            2655000        0              0              0              0
Averages over the last 751 of 1501 rows, steps 5455000 to 5605000:
Temp Press PotEng Density KinEng TotEng Lx Ly Lz Xlo Xhi Ylo Yhi Zlo Zhi Volume Dt
314.73 1.00154 -2.12795e+07 0.0854344 937.212 -2.12786e+07 2016.82 2016.82 2016.82 1491.59 3508.41 1491.59 3508.41 1491.59 3508.41 8.20381e+09 0.5
Loop time of 25.9373 on 4 procs for 300000 steps with 1000 atoms

# run_style
run_style verlet

# write restart
write_restart ./pgnpmf/01000/equpmf8.res
System init for write_restart ...
Generated 0 of 1 mixed pair_coeff terms from geometric mixing rule
