LAMMPS (23 Jun 2022 - Update 1)
# Read restart
read_restart ./pgnpmf/01000/equpmf104.res
Reading restart file ...
  restart file = 23 Jun 2022, LAMMPS = 23 Jun 2022
  restoring atom style atomic from restart
  orthogonal box = (2071.6116 2071.6116 2071.6116) to (2928.3884 2928.3884 2928.3884)
  restoring pair style table from restart
  1000 atoms
  read_restart CPU = 0.005 seconds

# Settings

pair_style table spline 9941

pair_coeff 1 1 ./pgnpmf/N20.txt DE_GNP 75.6
pair_coeff 2 2 ./pgnpmf/N100.txt DE_GNP 115.92
pair_coeff 1 2 ./pgnpmf/mixed_potential.txt DE_GNP 95.66

#Neigh_list Calc Frequency

neigh_modify delay 0 every 1 check yes

# Saving Frequency (50 frames)

variable ts_save equal 5000

# Dump
#dump_modify 1 first no sort id
#dump 2 all cfg 50000 ./equilibration/trajectory/ovito/dumpgen.tens_*.cfg mass type xs ys zs fx fy fz

# thermo_style
thermo_style custom step temp press pe density ke etotal lx ly lz xlo xhi ylo yhi zlo zhi vol dt time cpu tpcpu spcpu cpuremain

# run info
timestep 0.1
thermo 200

# fix

fix 1 all momentum 1000 linear 1 1 1 angular
variable T equal 300
fix 2 all nvt temp 300 370000 100.0

run 100000
Generated 0 of 1 mixed pair_coeff terms from geometric mixing rule
Unused restart file global fix info:
  fix style: npt, fix ID: 5
  update every 1 steps, delay 0 steps, check yes
Step          Temp          Press          PotEng        Density         KinEng         TotEng           Lx             Ly             Lz            Xlo            Xhi            Ylo            Yhi            Zlo            Zhi           Volume           Dt            Time           CPU           T/CPU          S/CPU         CPULeft
72805000   307.78215      0.27225076    -54940134       1.1143228      916.52268     -54939217       856.77672      856.77672      856.77672      2071.6116      2928.3884      2071.6116      2928.3884      2071.6116      2928.3884      6.2893095e+08  0.1            20445000       0              0              0              0
Averages over the last 251 of 501 rows, steps 72855000 to 72905000:
Temp Press PotEng Density KinEng TotEng Lx Ly Lz Xlo Xhi Ylo Yhi Zlo Zhi Volume Dt
276832 312.893 -5.50414e+07 1.11432 824358 -5.42171e+07 856.777 856.777 856.777 2071.61 2928.39 2071.61 2928.39 2071.61 2928.39 6.28931e+08 0.1
Loop time of 12.8436 on 1 procs for 100000 steps with 1000 atoms

unfix 2

fix 3 all nvt temp 370000 370000 $(100.0*dt) #iso 1.0 1.0 $(1000.0*dt)
fix 3 all nvt temp 370000 370000 10

run 200000
Generated 0 of 1 mixed pair_coeff terms from geometric mixing rule
Step          Temp          Press          PotEng        Density         KinEng         TotEng           Lx             Ly             Lz            Xlo            Xhi            Ylo            Yhi            Zlo            Zhi           Volume           Dt            Time           CPU           T/CPU          S/CPU         CPULeft
72905000   375375.89      539.06244     -54959656       1.1143228      1117805.3     -53841851       856.77672      856.77672      856.77672      2071.6116      2928.3884      2071.6116      2928.3884      2071.6116      2928.3884      6.2893095e+08  0.1            20455000       0              0              0              0
Averages over the last 501 of 1001 rows, steps 73005000 to 73105000:
Temp Press PotEng Density KinEng TotEng Lx Ly Lz Xlo Xhi Ylo Yhi Zlo Zhi Volume Dt
370107 452.006 -5.48933e+07 1.11432 1.10211e+06 -5.37912e+07 856.777 856.777 856.777 2071.61 2928.39 2071.61 2928.39 2071.61 2928.39 6.28931e+08 0.1
Loop time of 25.9078 on 1 procs for 200000 steps with 1000 atoms

unfix 3

fix 4 all nvt temp 370000 300 100.0

run 100000
Generated 0 of 1 mixed pair_coeff terms from geometric mixing rule
Step          Temp          Press          PotEng        Density         KinEng         TotEng           Lx             Ly             Lz            Xlo            Xhi            Ylo            Yhi            Zlo            Zhi           Volume           Dt            Time           CPU           T/CPU          S/CPU         CPULeft
73105000   373687.03      334.87383     -54434224       1.1143228      1112776.2     -53321448       856.77672      856.77672      856.77672      2071.6116      2928.3884      2071.6116      2928.3884      2071.6116      2928.3884      6.2893095e+08  0.1            20475000       0              0              0              0
Averages over the last 251 of 501 rows, steps 73155000 to 73205000:
Temp Press PotEng Density KinEng TotEng Lx Ly Lz Xlo Xhi Ylo Yhi Zlo Zhi Volume Dt
95976.4 -206.361 -5.44499e+07 1.11432 285801 -5.41641e+07 856.777 856.777 856.777 2071.61 2928.39 2071.61 2928.39 2071.61 2928.39 6.28931e+08 0.1
Loop time of 12.7114 on 1 procs for 100000 steps with 1000 atoms

unfix 4

fix 5 all npt temp 300 300 $(100.0*dt) iso 1.0 1.0 $(1000.0*dt)
fix 5 all npt temp 300 300 10 iso 1.0 1.0 $(1000.0*dt)
fix 5 all npt temp 300 300 10 iso 1.0 1.0 100

run 300000
Generated 0 of 1 mixed pair_coeff terms from geometric mixing rule
Step          Temp          Press          PotEng        Density         KinEng         TotEng           Lx             Ly             Lz            Xlo            Xhi            Ylo            Yhi            Zlo            Zhi           Volume           Dt            Time           CPU           T/CPU          S/CPU         CPULeft
73205000   5116.9994     -386.40208     -54577348       1.1143228      15237.55      -54562111       856.77672      856.77672      856.77672      2071.6116      2928.3884      2071.6116      2928.3884      2071.6116      2928.3884      6.2893095e+08  0.1            20485000       0              0              0              0
Averages over the last 751 of 1501 rows, steps 73355000 to 73505000:
Temp Press PotEng Density KinEng TotEng Lx Ly Lz Xlo Xhi Ylo Yhi Zlo Zhi Volume Dt
308.374 0.973475 -5.52402e+07 1.13403 918.284 -5.52393e+07 851.785 851.785 851.785 2074.11 2925.89 2074.11 2925.89 2074.11 2925.89 6.18002e+08 0.1
Loop time of 45.2141 on 1 procs for 300000 steps with 1000 atoms

# run_style
run_style verlet

# write restart
write_restart ./pgnpmf/01000/equpmf105.res
System init for write_restart ...
Generated 0 of 1 mixed pair_coeff terms from geometric mixing rule
