LAMMPS (23 Jun 2022 - Update 1)
# Read restart
read_restart ./pgnpmf/01000/equpmf29.res
Reading restart file ...
  restart file = 23 Jun 2022, LAMMPS = 23 Jun 2022
  restoring atom style atomic from restart
  orthogonal box = (1711.7842 1711.7842 1711.7842) to (3288.2158 3288.2158 3288.2158)
  restoring pair style table from restart
  1000 atoms
  read_restart CPU = 0.014 seconds

# Settings

pair_style table spline 9941

pair_coeff 1 1 ./pgnpmf/N20.txt DE_GNP 75.6
pair_coeff 2 2 ./pgnpmf/N100.txt DE_GNP 115.92
pair_coeff 1 2 ./pgnpmf/mixed_potential.txt DE_GNP 95.66

#Neigh_list Calc Frequency

neigh_modify delay 0 every 1 check yes

# Saving Frequency (50 frames)

variable ts_save equal 5000

# Dump
#dump_modify 1 first no sort id
#dump 2 all cfg 50000 ./equilibration/trajectory/ovito/dumpgen.tens_*.cfg mass type xs ys zs fx fy fz

# thermo_style
thermo_style custom step temp press pe density ke etotal lx ly lz xlo xhi ylo yhi zlo zhi vol dt time cpu tpcpu spcpu cpuremain

# run info
timestep 0.5
thermo 200

# fix

fix 1 all momentum 1000 linear 1 1 1 angular
variable T equal 300
fix 2 all nvt temp 300 370000 100.0

run 100000
Generated 0 of 1 mixed pair_coeff terms from geometric mixing rule
Unused restart file global fix info:
  fix style: npt, fix ID: 5
  update every 1 steps, delay 0 steps, check yes
Step          Temp          Press          PotEng        Density         KinEng         TotEng           Lx             Ly             Lz            Xlo            Xhi            Ylo            Yhi            Zlo            Zhi           Volume           Dt            Time           CPU           T/CPU          S/CPU         CPULeft
20305000   305.7396       0.89423515    -31596827       0.17889102     910.44033     -31595916       1576.4317      1576.4317      1576.4317      1711.7842      3288.2158      1711.7842      3288.2158      1711.7842      3288.2158      3.9176484e+09  0.5            10155000       0              0              0              0
Averages over the last 251 of 501 rows, steps 20355000 to 20405000:
Temp Press PotEng Density KinEng TotEng Lx Ly Lz Xlo Xhi Ylo Yhi Zlo Zhi Volume Dt
277574 10.2944 -3.07433e+07 0.178891 826568 -2.99167e+07 1576.43 1576.43 1576.43 1711.78 3288.22 1711.78 3288.22 1711.78 3288.22 3.91765e+09 0.5
Loop time of 8.13657 on 4 procs for 100000 steps with 1000 atoms

unfix 2

fix 3 all nvt temp 370000 370000 $(100.0*dt) #iso 1.0 1.0 $(1000.0*dt)
fix 3 all nvt temp 370000 370000 50

run 200000
Generated 0 of 1 mixed pair_coeff terms from geometric mixing rule
Step          Temp          Press          PotEng        Density         KinEng         TotEng           Lx             Ly             Lz            Xlo            Xhi            Ylo            Yhi            Zlo            Zhi           Volume           Dt            Time           CPU           T/CPU          S/CPU         CPULeft
20405000   370257.77     -2.812478      -30164183       0.17889102     1102564.4     -29061619       1576.4317      1576.4317      1576.4317      1711.7842      3288.2158      1711.7842      3288.2158      1711.7842      3288.2158      3.9176484e+09  0.5            10205000       0              0              0              0
Averages over the last 501 of 1001 rows, steps 20505000 to 20605000:
Temp Press PotEng Density KinEng TotEng Lx Ly Lz Xlo Xhi Ylo Yhi Zlo Zhi Volume Dt
369829 4.28321 -2.95095e+07 0.178891 1.10129e+06 -2.84082e+07 1576.43 1576.43 1576.43 1711.78 3288.22 1711.78 3288.22 1711.78 3288.22 3.91765e+09 0.5
Loop time of 16.1134 on 4 procs for 200000 steps with 1000 atoms

unfix 3

fix 4 all nvt temp 370000 300 100.0

run 100000
Generated 0 of 1 mixed pair_coeff terms from geometric mixing rule
Step          Temp          Press          PotEng        Density         KinEng         TotEng           Lx             Ly             Lz            Xlo            Xhi            Ylo            Yhi            Zlo            Zhi           Volume           Dt            Time           CPU           T/CPU          S/CPU         CPULeft
20605000   357394.44      3.0241531     -29858584       0.17889102     1064259.6     -28794325       1576.4317      1576.4317      1576.4317      1711.7842      3288.2158      1711.7842      3288.2158      1711.7842      3288.2158      3.9176484e+09  0.5            10305000       0              0              0              0
Averages over the last 251 of 501 rows, steps 20655000 to 20705000:
Temp Press PotEng Density KinEng TotEng Lx Ly Lz Xlo Xhi Ylo Yhi Zlo Zhi Volume Dt
93136.5 -12.6664 -3.11895e+07 0.178891 277345 -3.09122e+07 1576.43 1576.43 1576.43 1711.78 3288.22 1711.78 3288.22 1711.78 3288.22 3.91765e+09 0.5
Loop time of 8.26411 on 4 procs for 100000 steps with 1000 atoms

unfix 4

fix 5 all npt temp 300 300 $(100.0*dt) iso 1.0 1.0 $(1000.0*dt)
fix 5 all npt temp 300 300 50 iso 1.0 1.0 $(1000.0*dt)
fix 5 all npt temp 300 300 50 iso 1.0 1.0 500

run 300000
Generated 0 of 1 mixed pair_coeff terms from geometric mixing rule
Step          Temp          Press          PotEng        Density         KinEng         TotEng           Lx             Ly             Lz            Xlo            Xhi            Ylo            Yhi            Zlo            Zhi           Volume           Dt            Time           CPU           T/CPU          S/CPU         CPULeft
20705000   1357.6349     -16.346057     -31577207       0.17889102     4042.8049     -31573164       1576.4317      1576.4317      1576.4317      1711.7842      3288.2158      1711.7842      3288.2158      1711.7842      3288.2158      3.9176484e+09  0.5            10355000       0              0              0              0
Averages over the last 751 of 1501 rows, steps 20855000 to 21005000:
Temp Press PotEng Density KinEng TotEng Lx Ly Lz Xlo Xhi Ylo Yhi Zlo Zhi Volume Dt
306.755 0.988872 -3.1959e+07 0.182298 913.464 -3.19581e+07 1566.55 1566.55 1566.55 1716.73 3283.27 1716.73 3283.27 1716.73 3283.27 3.84444e+09 0.5
Loop time of 30.7666 on 4 procs for 300000 steps with 1000 atoms

# run_style
run_style verlet

# write restart
write_restart ./pgnpmf/01000/equpmf30.res
System init for write_restart ...
Generated 0 of 1 mixed pair_coeff terms from geometric mixing rule
