LAMMPS (23 Jun 2022 - Update 1)
# Read restart
read_restart ./pgnpmf/01000/equpmf55.res
Reading restart file ...
  restart file = 23 Jun 2022, LAMMPS = 23 Jun 2022
  restoring atom style atomic from restart
  orthogonal box = (1845.108 1845.108 1845.108) to (3154.892 3154.892 3154.892)
  restoring pair style table from restart
  1000 atoms
  read_restart CPU = 0.016 seconds

# Settings

pair_style table spline 9941

pair_coeff 1 1 ./pgnpmf/N20.txt DE_GNP 75.6
pair_coeff 2 2 ./pgnpmf/N100.txt DE_GNP 115.92
pair_coeff 1 2 ./pgnpmf/mixed_potential.txt DE_GNP 95.66

#Neigh_list Calc Frequency

neigh_modify delay 0 every 1 check yes

# Saving Frequency (50 frames)

variable ts_save equal 5000

# Dump
#dump_modify 1 first no sort id
#dump 2 all cfg 50000 ./equilibration/trajectory/ovito/dumpgen.tens_*.cfg mass type xs ys zs fx fy fz

# thermo_style
thermo_style custom step temp press pe density ke etotal lx ly lz xlo xhi ylo yhi zlo zhi vol dt time cpu tpcpu spcpu cpuremain

# run info
timestep 0.1
thermo 200

# fix

fix 1 all momentum 1000 linear 1 1 1 angular
variable T equal 300
fix 2 all nvt temp 300 370000 100.0

run 100000
Generated 0 of 1 mixed pair_coeff terms from geometric mixing rule
Unused restart file global fix info:
  fix style: npt, fix ID: 5
  update every 1 steps, delay 0 steps, check yes
Step          Temp          Press          PotEng        Density         KinEng         TotEng           Lx             Ly             Lz            Xlo            Xhi            Ylo            Yhi            Zlo            Zhi           Volume           Dt            Time           CPU           T/CPU          S/CPU         CPULeft
38505000   310.19838      0.55788894    -40798981       0.31189973     923.71781     -40798057       1309.7839      1309.7839      1309.7839      1845.108       3154.892       1845.108       3154.892       1845.108       3154.892       2.2469789e+09  0.1            17015000       0              0              0              0
Averages over the last 251 of 501 rows, steps 38555000 to 38605000:
Temp Press PotEng Density KinEng TotEng Lx Ly Lz Xlo Xhi Ylo Yhi Zlo Zhi Volume Dt
277494 -19.2565 -4.07566e+07 0.3119 826331 -3.99303e+07 1309.78 1309.78 1309.78 1845.11 3154.89 1845.11 3154.89 1845.11 3154.89 2.24698e+09 0.1
Loop time of 12.1801 on 4 procs for 100000 steps with 1000 atoms

unfix 2

fix 3 all nvt temp 370000 370000 $(100.0*dt) #iso 1.0 1.0 $(1000.0*dt)
fix 3 all nvt temp 370000 370000 10

run 200000
Generated 0 of 1 mixed pair_coeff terms from geometric mixing rule
Step          Temp          Press          PotEng        Density         KinEng         TotEng           Lx             Ly             Lz            Xlo            Xhi            Ylo            Yhi            Zlo            Zhi           Volume           Dt            Time           CPU           T/CPU          S/CPU         CPULeft
38605000   371136.69      41.16535      -40831884       0.31189973     1105181.7     -39726703       1309.7839      1309.7839      1309.7839      1845.108       3154.892       1845.108       3154.892       1845.108       3154.892       2.2469789e+09  0.1            17025000       0              0              0              0
Averages over the last 501 of 1001 rows, steps 38705000 to 38805000:
Temp Press PotEng Density KinEng TotEng Lx Ly Lz Xlo Xhi Ylo Yhi Zlo Zhi Volume Dt
370147 68.5355 -4.03194e+07 0.3119 1.10223e+06 -3.92171e+07 1309.78 1309.78 1309.78 1845.11 3154.89 1845.11 3154.89 1845.11 3154.89 2.24698e+09 0.1
Loop time of 24.5257 on 4 procs for 200000 steps with 1000 atoms

unfix 3

fix 4 all nvt temp 370000 300 100.0

run 100000
Generated 0 of 1 mixed pair_coeff terms from geometric mixing rule
Step          Temp          Press          PotEng        Density         KinEng         TotEng           Lx             Ly             Lz            Xlo            Xhi            Ylo            Yhi            Zlo            Zhi           Volume           Dt            Time           CPU           T/CPU          S/CPU         CPULeft
38805000   364549.02      43.360648     -40017737       0.31189973     1085564.7     -38932172       1309.7839      1309.7839      1309.7839      1845.108       3154.892       1845.108       3154.892       1845.108       3154.892       2.2469789e+09  0.1            17045000       0              0              0              0
Averages over the last 251 of 501 rows, steps 38855000 to 38905000:
Temp Press PotEng Density KinEng TotEng Lx Ly Lz Xlo Xhi Ylo Yhi Zlo Zhi Volume Dt
95280 -114.306 -3.96409e+07 0.3119 283728 -3.93572e+07 1309.78 1309.78 1309.78 1845.11 3154.89 1845.11 3154.89 1845.11 3154.89 2.24698e+09 0.1
Loop time of 11.9782 on 4 procs for 100000 steps with 1000 atoms

unfix 4

fix 5 all npt temp 300 300 $(100.0*dt) iso 1.0 1.0 $(1000.0*dt)
fix 5 all npt temp 300 300 10 iso 1.0 1.0 $(1000.0*dt)
fix 5 all npt temp 300 300 10 iso 1.0 1.0 100

run 300000
Generated 0 of 1 mixed pair_coeff terms from geometric mixing rule
Step          Temp          Press          PotEng        Density         KinEng         TotEng           Lx             Ly             Lz            Xlo            Xhi            Ylo            Yhi            Zlo            Zhi           Volume           Dt            Time           CPU           T/CPU          S/CPU         CPULeft
38905000   5073.8365     -163.3406      -39676320       0.31189973     15109.019     -39661211       1309.7839      1309.7839      1309.7839      1845.108       3154.892       1845.108       3154.892       1845.108       3154.892       2.2469789e+09  0.1            17055000       0              0              0              0
Averages over the last 751 of 1501 rows, steps 39055000 to 39205000:
Temp Press PotEng Density KinEng TotEng Lx Ly Lz Xlo Xhi Ylo Yhi Zlo Zhi Volume Dt
310.914 0.992441 -4.07858e+07 0.324328 925.849 -4.07849e+07 1292.84 1292.84 1292.84 1853.58 3146.42 1853.58 3146.42 1853.58 3146.42 2.16088e+09 0.1
Loop time of 45.1794 on 4 procs for 300000 steps with 1000 atoms

# run_style
run_style verlet

# write restart
write_restart ./pgnpmf/01000/equpmf56.res
System init for write_restart ...
Generated 0 of 1 mixed pair_coeff terms from geometric mixing rule
