LAMMPS (23 Jun 2022 - Update 1)
# Read restart
read_restart ./pgnpmf/01000/equpmf23.res
Reading restart file ...
  restart file = 23 Jun 2022, LAMMPS = 23 Jun 2022
  restoring atom style atomic from restart
  orthogonal box = (1682.0485 1682.0485 1682.0485) to (3317.9515 3317.9515 3317.9515)
  restoring pair style table from restart
  1000 atoms
  read_restart CPU = 0.014 seconds

# Settings

pair_style table spline 9941

pair_coeff 1 1 ./pgnpmf/N20.txt DE_GNP 75.6
pair_coeff 2 2 ./pgnpmf/N100.txt DE_GNP 115.92
pair_coeff 1 2 ./pgnpmf/mixed_potential.txt DE_GNP 95.66

#Neigh_list Calc Frequency

neigh_modify delay 0 every 1 check yes

# Saving Frequency (50 frames)

variable ts_save equal 5000

# Dump
#dump_modify 1 first no sort id
#dump 2 all cfg 50000 ./equilibration/trajectory/ovito/dumpgen.tens_*.cfg mass type xs ys zs fx fy fz

# thermo_style
thermo_style custom step temp press pe density ke etotal lx ly lz xlo xhi ylo yhi zlo zhi vol dt time cpu tpcpu spcpu cpuremain

# run info
timestep 0.5
thermo 200

# fix

fix 1 all momentum 1000 linear 1 1 1 angular
variable T equal 300
fix 2 all nvt temp 300 370000 100.0

run 100000
Generated 0 of 1 mixed pair_coeff terms from geometric mixing rule
Unused restart file global fix info:
  fix style: npt, fix ID: 5
  update every 1 steps, delay 0 steps, check yes
Step          Temp          Press          PotEng        Density         KinEng         TotEng           Lx             Ly             Lz            Xlo            Xhi            Ylo            Yhi            Zlo            Zhi           Volume           Dt            Time           CPU           T/CPU          S/CPU         CPULeft
16105000   298.2035       1.5099394     -30746054       0.16008155     887.9991      -30745166       1635.9031      1635.9031      1635.9031      1682.0485      3317.9515      1682.0485      3317.9515      1682.0485      3317.9515      4.3779694e+09  0.5            8055000        0              0              0              0
Averages over the last 251 of 501 rows, steps 16155000 to 16205000:
Temp Press PotEng Density KinEng TotEng Lx Ly Lz Xlo Xhi Ylo Yhi Zlo Zhi Volume Dt
277555 2.78896 -2.95879e+07 0.160082 826512 -2.87614e+07 1635.9 1635.9 1635.9 1682.05 3317.95 1682.05 3317.95 1682.05 3317.95 4.37797e+09 0.5
Loop time of 8.08578 on 4 procs for 100000 steps with 1000 atoms

unfix 2

fix 3 all nvt temp 370000 370000 $(100.0*dt) #iso 1.0 1.0 $(1000.0*dt)
fix 3 all nvt temp 370000 370000 50

run 200000
Generated 0 of 1 mixed pair_coeff terms from geometric mixing rule
Step          Temp          Press          PotEng        Density         KinEng         TotEng           Lx             Ly             Lz            Xlo            Xhi            Ylo            Yhi            Zlo            Zhi           Volume           Dt            Time           CPU           T/CPU          S/CPU         CPULeft
16205000   370889.26     -0.44248142    -29196129       0.16008155     1104444.9     -28091684       1635.9031      1635.9031      1635.9031      1682.0485      3317.9515      1682.0485      3317.9515      1682.0485      3317.9515      4.3779694e+09  0.5            8105000        0              0              0              0
Averages over the last 501 of 1001 rows, steps 16305000 to 16405000:
Temp Press PotEng Density KinEng TotEng Lx Ly Lz Xlo Xhi Ylo Yhi Zlo Zhi Volume Dt
370222 6.09357 -2.95553e+07 0.160082 1.10246e+06 -2.84529e+07 1635.9 1635.9 1635.9 1682.05 3317.95 1682.05 3317.95 1682.05 3317.95 4.37797e+09 0.5
Loop time of 16.213 on 4 procs for 200000 steps with 1000 atoms

unfix 3

fix 4 all nvt temp 370000 300 100.0

run 100000
Generated 0 of 1 mixed pair_coeff terms from geometric mixing rule
Step          Temp          Press          PotEng        Density         KinEng         TotEng           Lx             Ly             Lz            Xlo            Xhi            Ylo            Yhi            Zlo            Zhi           Volume           Dt            Time           CPU           T/CPU          S/CPU         CPULeft
16405000   368370.92      8.382211      -29778261       0.16008155     1096945.7     -28681316       1635.9031      1635.9031      1635.9031      1682.0485      3317.9515      1682.0485      3317.9515      1682.0485      3317.9515      4.3779694e+09  0.5            8205000        0              0              0              0
Averages over the last 251 of 501 rows, steps 16455000 to 16505000:
Temp Press PotEng Density KinEng TotEng Lx Ly Lz Xlo Xhi Ylo Yhi Zlo Zhi Volume Dt
93104.8 -5.61036 -3.03978e+07 0.160082 277250 -3.01205e+07 1635.9 1635.9 1635.9 1682.05 3317.95 1682.05 3317.95 1682.05 3317.95 4.37797e+09 0.5
Loop time of 8.04768 on 4 procs for 100000 steps with 1000 atoms

unfix 4

fix 5 all npt temp 300 300 $(100.0*dt) iso 1.0 1.0 $(1000.0*dt)
fix 5 all npt temp 300 300 50 iso 1.0 1.0 $(1000.0*dt)
fix 5 all npt temp 300 300 50 iso 1.0 1.0 500

run 300000
Generated 0 of 1 mixed pair_coeff terms from geometric mixing rule
Step          Temp          Press          PotEng        Density         KinEng         TotEng           Lx             Ly             Lz            Xlo            Xhi            Ylo            Yhi            Zlo            Zhi           Volume           Dt            Time           CPU           T/CPU          S/CPU         CPULeft
16505000   1352.9129     -9.8907435     -30699384       0.16008155     4028.7436     -30695355       1635.9031      1635.9031      1635.9031      1682.0485      3317.9515      1682.0485      3317.9515      1682.0485      3317.9515      4.3779694e+09  0.5            8255000        0              0              0              0
Averages over the last 751 of 1501 rows, steps 16655000 to 16805000:
Temp Press PotEng Density KinEng TotEng Lx Ly Lz Xlo Xhi Ylo Yhi Zlo Zhi Volume Dt
303.886 0.994598 -3.08582e+07 0.162159 904.921 -3.08573e+07 1628.89 1628.89 1628.89 1685.56 3314.44 1685.56 3314.44 1685.56 3314.44 4.32188e+09 0.5
Loop time of 30.1766 on 4 procs for 300000 steps with 1000 atoms

# run_style
run_style verlet

# write restart
write_restart ./pgnpmf/01000/equpmf24.res
System init for write_restart ...
Generated 0 of 1 mixed pair_coeff terms from geometric mixing rule
