LAMMPS (23 Jun 2022 - Update 1)
# Read restart
read_restart ./pgnpmf/01000/equpmf146.res
Reading restart file ...
  restart file = 23 Jun 2022, LAMMPS = 23 Jun 2022
  restoring atom style atomic from restart
  orthogonal box = (2113.7594 2113.7594 2113.7594) to (2886.2406 2886.2406 2886.2406)
  restoring pair style table from restart
  1000 atoms
  read_restart CPU = 0.009 seconds

# Settings

pair_style table spline 9941

pair_coeff 1 1 ./pgnpmf/N20.txt DE_GNP 75.6
pair_coeff 2 2 ./pgnpmf/N100.txt DE_GNP 115.92
pair_coeff 1 2 ./pgnpmf/mixed_potential.txt DE_GNP 95.66

#Neigh_list Calc Frequency

neigh_modify delay 0 every 1 check yes

# Saving Frequency (50 frames)

variable ts_save equal 5000

# Dump
#dump_modify 1 first no sort id
#dump 2 all cfg 50000 ./equilibration/trajectory/ovito/dumpgen.tens_*.cfg mass type xs ys zs fx fy fz

# thermo_style
thermo_style custom step temp press pe density ke etotal lx ly lz xlo xhi ylo yhi zlo zhi vol dt time cpu tpcpu spcpu cpuremain

# run info
timestep 0.1
thermo 200

# fix

fix 1 all momentum 1000 linear 1 1 1 angular
variable T equal 300
fix 2 all nvt temp 300 370000 100.0

run 100000
Generated 0 of 1 mixed pair_coeff terms from geometric mixing rule
Unused restart file global fix info:
  fix style: npt, fix ID: 5
  update every 1 steps, delay 0 steps, check yes
Step          Temp          Press          PotEng        Density         KinEng         TotEng           Lx             Ly             Lz            Xlo            Xhi            Ylo            Yhi            Zlo            Zhi           Volume           Dt            Time           CPU           T/CPU          S/CPU         CPULeft
102205000   306.04825     -2.5809513     -60243127       1.5203728      911.35942     -60242216       772.48129      772.48129      772.48129      2113.7594      2886.2406      2113.7594      2886.2406      2113.7594      2886.2406      4.6096071e+08  0.1            23385000       0              0              0              0
Averages over the last 251 of 501 rows, steps 102255000 to 102305000:
Temp Press PotEng Density KinEng TotEng Lx Ly Lz Xlo Xhi Ylo Yhi Zlo Zhi Volume Dt
276756 289.813 -6.02822e+07 1.52037 824132 -5.94581e+07 772.481 772.481 772.481 2113.76 2886.24 2113.76 2886.24 2113.76 2886.24 4.60961e+08 0.1
Loop time of 16.335 on 1 procs for 100000 steps with 1000 atoms

unfix 2

fix 3 all nvt temp 370000 370000 $(100.0*dt) #iso 1.0 1.0 $(1000.0*dt)
fix 3 all nvt temp 370000 370000 10

run 200000
Generated 0 of 1 mixed pair_coeff terms from geometric mixing rule
Step          Temp          Press          PotEng        Density         KinEng         TotEng           Lx             Ly             Lz            Xlo            Xhi            Ylo            Yhi            Zlo            Zhi           Volume           Dt            Time           CPU           T/CPU          S/CPU         CPULeft
102305000   373492.71      508.49187     -60251272       1.5203728      1112197.5     -59139074       772.48129      772.48129      772.48129      2113.7594      2886.2406      2113.7594      2886.2406      2113.7594      2886.2406      4.6096071e+08  0.1            23395000       0              0              0              0
Averages over the last 501 of 1001 rows, steps 102405000 to 102505000:
Temp Press PotEng Density KinEng TotEng Lx Ly Lz Xlo Xhi Ylo Yhi Zlo Zhi Volume Dt
369858 1111.58 -6.01502e+07 1.52037 1.10137e+06 -5.90488e+07 772.481 772.481 772.481 2113.76 2886.24 2113.76 2886.24 2113.76 2886.24 4.60961e+08 0.1
Loop time of 33.0373 on 1 procs for 200000 steps with 1000 atoms

unfix 3

fix 4 all nvt temp 370000 300 100.0

run 100000
Generated 0 of 1 mixed pair_coeff terms from geometric mixing rule
Step          Temp          Press          PotEng        Density         KinEng         TotEng           Lx             Ly             Lz            Xlo            Xhi            Ylo            Yhi            Zlo            Zhi           Volume           Dt            Time           CPU           T/CPU          S/CPU         CPULeft
102505000   369696.95      1215.7677     -60121634       1.5203728      1100894.4     -59020740       772.48129      772.48129      772.48129      2113.7594      2886.2406      2113.7594      2886.2406      2113.7594      2886.2406      4.6096071e+08  0.1            23415000       0              0              0              0
Averages over the last 251 of 501 rows, steps 102555000 to 102605000:
Temp Press PotEng Density KinEng TotEng Lx Ly Lz Xlo Xhi Ylo Yhi Zlo Zhi Volume Dt
96073.9 539.28 -6.04068e+07 1.52037 286092 -6.01207e+07 772.481 772.481 772.481 2113.76 2886.24 2113.76 2886.24 2113.76 2886.24 4.60961e+08 0.1
Loop time of 16.5342 on 1 procs for 100000 steps with 1000 atoms

unfix 4

fix 5 all npt temp 300 300 $(100.0*dt) iso 1.0 1.0 $(1000.0*dt)
fix 5 all npt temp 300 300 10 iso 1.0 1.0 $(1000.0*dt)
fix 5 all npt temp 300 300 10 iso 1.0 1.0 100

run 300000
Generated 0 of 1 mixed pair_coeff terms from geometric mixing rule
Step          Temp          Press          PotEng        Density         KinEng         TotEng           Lx             Ly             Lz            Xlo            Xhi            Ylo            Yhi            Zlo            Zhi           Volume           Dt            Time           CPU           T/CPU          S/CPU         CPULeft
102605000   5186.7798      239.4863      -60665069       1.5203728      15445.345     -60649623       772.48129      772.48129      772.48129      2113.7594      2886.2406      2113.7594      2886.2406      2113.7594      2886.2406      4.6096071e+08  0.1            23425000       0              0              0              0
Averages over the last 751 of 1501 rows, steps 102755000 to 102905000:
Temp Press PotEng Density KinEng TotEng Lx Ly Lz Xlo Xhi Ylo Yhi Zlo Zhi Volume Dt
306.896 0.977669 -6.06284e+07 1.51868 913.883 -6.06275e+07 772.769 772.769 772.769 2113.62 2886.38 2113.62 2886.38 2113.62 2886.38 4.61475e+08 0.1
Loop time of 57.3635 on 1 procs for 300000 steps with 1000 atoms

# run_style
run_style verlet

# write restart
write_restart ./pgnpmf/01000/equpmf147.res
System init for write_restart ...
Generated 0 of 1 mixed pair_coeff terms from geometric mixing rule
