LAMMPS (23 Jun 2022 - Update 1)
# Read restart
read_restart ./pgnpmf/01000/equpmf91.res
Reading restart file ...
  restart file = 23 Jun 2022, LAMMPS = 23 Jun 2022
  restoring atom style atomic from restart
  orthogonal box = (2025.0799 2025.0799 2025.0799) to (2974.9201 2974.9201 2974.9201)
  restoring pair style table from restart
  1000 atoms
  read_restart CPU = 0.006 seconds

# Settings

pair_style table spline 9941

pair_coeff 1 1 ./pgnpmf/N20.txt DE_GNP 75.6
pair_coeff 2 2 ./pgnpmf/N100.txt DE_GNP 115.92
pair_coeff 1 2 ./pgnpmf/mixed_potential.txt DE_GNP 95.66

#Neigh_list Calc Frequency

neigh_modify delay 0 every 1 check yes

# Saving Frequency (50 frames)

variable ts_save equal 5000

# Dump
#dump_modify 1 first no sort id
#dump 2 all cfg 50000 ./equilibration/trajectory/ovito/dumpgen.tens_*.cfg mass type xs ys zs fx fy fz

# thermo_style
thermo_style custom step temp press pe density ke etotal lx ly lz xlo xhi ylo yhi zlo zhi vol dt time cpu tpcpu spcpu cpuremain

# run info
timestep 0.1
thermo 200

# fix

fix 1 all momentum 1000 linear 1 1 1 angular
variable T equal 300
fix 2 all nvt temp 300 370000 100.0

run 100000
Generated 0 of 1 mixed pair_coeff terms from geometric mixing rule
Unused restart file global fix info:
  fix style: npt, fix ID: 5
  update every 1 steps, delay 0 steps, check yes
Step          Temp          Press          PotEng        Density         KinEng         TotEng           Lx             Ly             Lz            Xlo            Xhi            Ylo            Yhi            Zlo            Zhi           Volume           Dt            Time           CPU           T/CPU          S/CPU         CPULeft
63705000   307.78304     -0.63253309    -50116571       0.81782846     916.52533     -50115654       949.8403       949.8403       949.8403       2025.0799      2974.9201      2025.0799      2974.9201      2025.0799      2974.9201      8.5694268e+08  0.1            19535000       0              0              0              0
Averages over the last 251 of 501 rows, steps 63755000 to 63805000:
Temp Press PotEng Density KinEng TotEng Lx Ly Lz Xlo Xhi Ylo Yhi Zlo Zhi Volume Dt
277699 20.3803 -5.02126e+07 0.817828 826939 -4.93857e+07 949.84 949.84 949.84 2025.08 2974.92 2025.08 2974.92 2025.08 2974.92 8.56943e+08 0.1
Loop time of 14.9024 on 1 procs for 100000 steps with 1000 atoms

unfix 2

fix 3 all nvt temp 370000 370000 $(100.0*dt) #iso 1.0 1.0 $(1000.0*dt)
fix 3 all nvt temp 370000 370000 10

run 200000
Generated 0 of 1 mixed pair_coeff terms from geometric mixing rule
Step          Temp          Press          PotEng        Density         KinEng         TotEng           Lx             Ly             Lz            Xlo            Xhi            Ylo            Yhi            Zlo            Zhi           Volume           Dt            Time           CPU           T/CPU          S/CPU         CPULeft
63805000   371471.4       138.30714     -50242097       0.81782846     1106178.4     -49135919       949.8403       949.8403       949.8403       2025.0799      2974.9201      2025.0799      2974.9201      2025.0799      2974.9201      8.5694268e+08  0.1            19545000       0              0              0              0
Averages over the last 501 of 1001 rows, steps 63905000 to 64005000:
Temp Press PotEng Density KinEng TotEng Lx Ly Lz Xlo Xhi Ylo Yhi Zlo Zhi Volume Dt
370181 11.1429 -4.97471e+07 0.817828 1.10233e+06 -4.86447e+07 949.84 949.84 949.84 2025.08 2974.92 2025.08 2974.92 2025.08 2974.92 8.56943e+08 0.1
Loop time of 29.8715 on 1 procs for 200000 steps with 1000 atoms

unfix 3

fix 4 all nvt temp 370000 300 100.0

run 100000
Generated 0 of 1 mixed pair_coeff terms from geometric mixing rule
Step          Temp          Press          PotEng        Density         KinEng         TotEng           Lx             Ly             Lz            Xlo            Xhi            Ylo            Yhi            Zlo            Zhi           Volume           Dt            Time           CPU           T/CPU          S/CPU         CPULeft
64005000   368032.66      6.6800013     -49688398       0.81782846     1095938.4     -48592459       949.8403       949.8403       949.8403       2025.0799      2974.9201      2025.0799      2974.9201      2025.0799      2974.9201      8.5694268e+08  0.1            19565000       0              0              0              0
Averages over the last 251 of 501 rows, steps 64055000 to 64105000:
Temp Press PotEng Density KinEng TotEng Lx Ly Lz Xlo Xhi Ylo Yhi Zlo Zhi Volume Dt
95506.6 -128.236 -4.98488e+07 0.817828 284402 -4.95644e+07 949.84 949.84 949.84 2025.08 2974.92 2025.08 2974.92 2025.08 2974.92 8.56943e+08 0.1
Loop time of 14.8655 on 1 procs for 100000 steps with 1000 atoms

unfix 4

fix 5 all npt temp 300 300 $(100.0*dt) iso 1.0 1.0 $(1000.0*dt)
fix 5 all npt temp 300 300 10 iso 1.0 1.0 $(1000.0*dt)
fix 5 all npt temp 300 300 10 iso 1.0 1.0 100

run 300000
Generated 0 of 1 mixed pair_coeff terms from geometric mixing rule
Step          Temp          Press          PotEng        Density         KinEng         TotEng           Lx             Ly             Lz            Xlo            Xhi            Ylo            Yhi            Zlo            Zhi           Volume           Dt            Time           CPU           T/CPU          S/CPU         CPULeft
64105000   5120.8663     -234.40218     -49888494       0.81782846     15249.065     -49873244       949.8403       949.8403       949.8403       2025.0799      2974.9201      2025.0799      2974.9201      2025.0799      2974.9201      8.5694268e+08  0.1            19575000       0              0              0              0
Averages over the last 751 of 1501 rows, steps 64255000 to 64405000:
Temp Press PotEng Density KinEng TotEng Lx Ly Lz Xlo Xhi Ylo Yhi Zlo Zhi Volume Dt
308.585 0.954814 -5.04664e+07 0.832201 918.912 -5.04654e+07 944.341 944.341 944.341 2027.83 2972.17 2027.83 2972.17 2027.83 2972.17 8.42143e+08 0.1
Loop time of 52.8311 on 1 procs for 300000 steps with 1000 atoms

# run_style
run_style verlet

# write restart
write_restart ./pgnpmf/01000/equpmf92.res
System init for write_restart ...
Generated 0 of 1 mixed pair_coeff terms from geometric mixing rule
