LAMMPS (23 Jun 2022 - Update 1)
# Read restart
read_restart ./pgnpmf/01000/equpmf136.res
Reading restart file ...
  restart file = 23 Jun 2022, LAMMPS = 23 Jun 2022
  restoring atom style atomic from restart
  orthogonal box = (2112.584 2112.584 2112.584) to (2887.416 2887.416 2887.416)
  restoring pair style table from restart
  1000 atoms
  read_restart CPU = 0.007 seconds

# Settings

pair_style table spline 9941

pair_coeff 1 1 ./pgnpmf/N20.txt DE_GNP 75.6
pair_coeff 2 2 ./pgnpmf/N100.txt DE_GNP 115.92
pair_coeff 1 2 ./pgnpmf/mixed_potential.txt DE_GNP 95.66

#Neigh_list Calc Frequency

neigh_modify delay 0 every 1 check yes

# Saving Frequency (50 frames)

variable ts_save equal 5000

# Dump
#dump_modify 1 first no sort id
#dump 2 all cfg 50000 ./equilibration/trajectory/ovito/dumpgen.tens_*.cfg mass type xs ys zs fx fy fz

# thermo_style
thermo_style custom step temp press pe density ke etotal lx ly lz xlo xhi ylo yhi zlo zhi vol dt time cpu tpcpu spcpu cpuremain

# run info
timestep 0.1
thermo 200

# fix

fix 1 all momentum 1000 linear 1 1 1 angular
variable T equal 300
fix 2 all nvt temp 300 370000 100.0

run 100000
Generated 0 of 1 mixed pair_coeff terms from geometric mixing rule
Unused restart file global fix info:
  fix style: npt, fix ID: 5
  update every 1 steps, delay 0 steps, check yes
Step          Temp          Press          PotEng        Density         KinEng         TotEng           Lx             Ly             Lz            Xlo            Xhi            Ylo            Yhi            Zlo            Zhi           Volume           Dt            Time           CPU           T/CPU          S/CPU         CPULeft
95205000   306.07813     -2.8723918     -60232364       1.5065775      911.44842     -60231452       774.83192      774.83192      774.83192      2112.584       2887.416       2112.584       2887.416       2112.584       2887.416       4.6518158e+08  0.1            22685000       0              0              0              0
Averages over the last 251 of 501 rows, steps 95255000 to 95305000:
Temp Press PotEng Density KinEng TotEng Lx Ly Lz Xlo Xhi Ylo Yhi Zlo Zhi Volume Dt
277446 339.146 -6.02549e+07 1.50658 826186 -5.94287e+07 774.832 774.832 774.832 2112.58 2887.42 2112.58 2887.42 2112.58 2887.42 4.65182e+08 0.1
Loop time of 13.7956 on 1 procs for 100000 steps with 1000 atoms

unfix 2

fix 3 all nvt temp 370000 370000 $(100.0*dt) #iso 1.0 1.0 $(1000.0*dt)
fix 3 all nvt temp 370000 370000 10

run 200000
Generated 0 of 1 mixed pair_coeff terms from geometric mixing rule
Step          Temp          Press          PotEng        Density         KinEng         TotEng           Lx             Ly             Lz            Xlo            Xhi            Ylo            Yhi            Zlo            Zhi           Volume           Dt            Time           CPU           T/CPU          S/CPU         CPULeft
95305000   377184.03      618.0897      -60236561       1.5065775      1123189.6     -59113372       774.83192      774.83192      774.83192      2112.584       2887.416       2112.584       2887.416       2112.584       2887.416       4.6518158e+08  0.1            22695000       0              0              0              0
Averages over the last 501 of 1001 rows, steps 95405000 to 95505000:
Temp Press PotEng Density KinEng TotEng Lx Ly Lz Xlo Xhi Ylo Yhi Zlo Zhi Volume Dt
370223 1184.04 -6.00643e+07 1.50658 1.10246e+06 -5.89619e+07 774.832 774.832 774.832 2112.58 2887.42 2112.58 2887.42 2112.58 2887.42 4.65182e+08 0.1
Loop time of 28.2043 on 1 procs for 200000 steps with 1000 atoms

unfix 3

fix 4 all nvt temp 370000 300 100.0

run 100000
Generated 0 of 1 mixed pair_coeff terms from geometric mixing rule
Step          Temp          Press          PotEng        Density         KinEng         TotEng           Lx             Ly             Lz            Xlo            Xhi            Ylo            Yhi            Zlo            Zhi           Volume           Dt            Time           CPU           T/CPU          S/CPU         CPULeft
95505000   371726.95      1232.1259     -60038360       1.5065775      1106939.4     -58931420       774.83192      774.83192      774.83192      2112.584       2887.416       2112.584       2887.416       2112.584       2887.416       4.6518158e+08  0.1            22715000       0              0              0              0
Averages over the last 251 of 501 rows, steps 95555000 to 95605000:
Temp Press PotEng Density KinEng TotEng Lx Ly Lz Xlo Xhi Ylo Yhi Zlo Zhi Volume Dt
96481.1 588.387 -6.02359e+07 1.50658 287304 -5.99486e+07 774.832 774.832 774.832 2112.58 2887.42 2112.58 2887.42 2112.58 2887.42 4.65182e+08 0.1
Loop time of 13.6431 on 1 procs for 100000 steps with 1000 atoms

unfix 4

fix 5 all npt temp 300 300 $(100.0*dt) iso 1.0 1.0 $(1000.0*dt)
fix 5 all npt temp 300 300 10 iso 1.0 1.0 $(1000.0*dt)
fix 5 all npt temp 300 300 10 iso 1.0 1.0 100

run 300000
Generated 0 of 1 mixed pair_coeff terms from geometric mixing rule
Step          Temp          Press          PotEng        Density         KinEng         TotEng           Lx             Ly             Lz            Xlo            Xhi            Ylo            Yhi            Zlo            Zhi           Volume           Dt            Time           CPU           T/CPU          S/CPU         CPULeft
95605000   5152.902       297.02335     -60422446       1.5065775      15344.462     -60407102       774.83192      774.83192      774.83192      2112.584       2887.416       2112.584       2887.416       2112.584       2887.416       4.6518158e+08  0.1            22725000       0              0              0              0
Averages over the last 751 of 1501 rows, steps 95755000 to 95905000:
Temp Press PotEng Density KinEng TotEng Lx Ly Lz Xlo Xhi Ylo Yhi Zlo Zhi Volume Dt
306.972 0.94953 -6.04325e+07 1.50335 914.111 -6.04316e+07 775.387 775.387 775.387 2112.31 2887.69 2112.31 2887.69 2112.31 2887.69 4.66182e+08 0.1
Loop time of 47.0327 on 1 procs for 300000 steps with 1000 atoms

# run_style
run_style verlet

# write restart
write_restart ./pgnpmf/01000/equpmf137.res
System init for write_restart ...
Generated 0 of 1 mixed pair_coeff terms from geometric mixing rule
