LAMMPS (23 Jun 2022 - Update 1)
# Read restart
read_restart ./pgnpmf/01000/equpmf26.res
Reading restart file ...
  restart file = 23 Jun 2022, LAMMPS = 23 Jun 2022
  restoring atom style atomic from restart
  orthogonal box = (1694.5011 1694.5011 1694.5011) to (3305.4989 3305.4989 3305.4989)
  restoring pair style table from restart
  1000 atoms
  read_restart CPU = 0.013 seconds

# Settings

pair_style table spline 9941

pair_coeff 1 1 ./pgnpmf/N20.txt DE_GNP 75.6
pair_coeff 2 2 ./pgnpmf/N100.txt DE_GNP 115.92
pair_coeff 1 2 ./pgnpmf/mixed_potential.txt DE_GNP 95.66

#Neigh_list Calc Frequency

neigh_modify delay 0 every 1 check yes

# Saving Frequency (50 frames)

variable ts_save equal 5000

# Dump
#dump_modify 1 first no sort id
#dump 2 all cfg 50000 ./equilibration/trajectory/ovito/dumpgen.tens_*.cfg mass type xs ys zs fx fy fz

# thermo_style
thermo_style custom step temp press pe density ke etotal lx ly lz xlo xhi ylo yhi zlo zhi vol dt time cpu tpcpu spcpu cpuremain

# run info
timestep 0.5
thermo 200

# fix

fix 1 all momentum 1000 linear 1 1 1 angular
variable T equal 300
fix 2 all nvt temp 300 370000 100.0

run 100000
Generated 0 of 1 mixed pair_coeff terms from geometric mixing rule
Unused restart file global fix info:
  fix style: npt, fix ID: 5
  update every 1 steps, delay 0 steps, check yes
Step          Temp          Press          PotEng        Density         KinEng         TotEng           Lx             Ly             Lz            Xlo            Xhi            Ylo            Yhi            Zlo            Zhi           Volume           Dt            Time           CPU           T/CPU          S/CPU         CPULeft
18205000   292.3984       0.75157357    -31641329       0.16762125     870.7125      -31640458       1610.9979      1610.9979      1610.9979      1694.5011      3305.4989      1694.5011      3305.4989      1694.5011      3305.4989      4.1810458e+09  0.5            9105000        0              0              0              0
Averages over the last 251 of 501 rows, steps 18255000 to 18305000:
Temp Press PotEng Density KinEng TotEng Lx Ly Lz Xlo Xhi Ylo Yhi Zlo Zhi Volume Dt
277397 7.09469 -3.10434e+07 0.167621 826042 -3.02174e+07 1611 1611 1611 1694.5 3305.5 1694.5 3305.5 1694.5 3305.5 4.18105e+09 0.5
Loop time of 8.47329 on 4 procs for 100000 steps with 1000 atoms

unfix 2

fix 3 all nvt temp 370000 370000 $(100.0*dt) #iso 1.0 1.0 $(1000.0*dt)
fix 3 all nvt temp 370000 370000 50

run 200000
Generated 0 of 1 mixed pair_coeff terms from geometric mixing rule
Step          Temp          Press          PotEng        Density         KinEng         TotEng           Lx             Ly             Lz            Xlo            Xhi            Ylo            Yhi            Zlo            Zhi           Volume           Dt            Time           CPU           T/CPU          S/CPU         CPULeft
18305000   366125.27      3.911262      -30756184       0.16762125     1090258.5     -29665926       1610.9979      1610.9979      1610.9979      1694.5011      3305.4989      1694.5011      3305.4989      1694.5011      3305.4989      4.1810458e+09  0.5            9155000        0              0              0              0
Averages over the last 501 of 1001 rows, steps 18405000 to 18505000:
Temp Press PotEng Density KinEng TotEng Lx Ly Lz Xlo Xhi Ylo Yhi Zlo Zhi Volume Dt
370233 6.11997 -3.08822e+07 0.167621 1.10249e+06 -2.97797e+07 1611 1611 1611 1694.5 3305.5 1694.5 3305.5 1694.5 3305.5 4.18105e+09 0.5
Loop time of 17.0071 on 4 procs for 200000 steps with 1000 atoms

unfix 3

fix 4 all nvt temp 370000 300 100.0

run 100000
Generated 0 of 1 mixed pair_coeff terms from geometric mixing rule
Step          Temp          Press          PotEng        Density         KinEng         TotEng           Lx             Ly             Lz            Xlo            Xhi            Ylo            Yhi            Zlo            Zhi           Volume           Dt            Time           CPU           T/CPU          S/CPU         CPULeft
18505000   372842.96      3.7255297     -30804359       0.16762125     1110262.7     -29694096       1610.9979      1610.9979      1610.9979      1694.5011      3305.4989      1694.5011      3305.4989      1694.5011      3305.4989      4.1810458e+09  0.5            9255000        0              0              0              0
Averages over the last 251 of 501 rows, steps 18555000 to 18605000:
Temp Press PotEng Density KinEng TotEng Lx Ly Lz Xlo Xhi Ylo Yhi Zlo Zhi Volume Dt
93003.4 -4.39886 -3.1753e+07 0.167621 276948 -3.1476e+07 1611 1611 1611 1694.5 3305.5 1694.5 3305.5 1694.5 3305.5 4.18105e+09 0.5
Loop time of 8.40101 on 4 procs for 100000 steps with 1000 atoms

unfix 4

fix 5 all npt temp 300 300 $(100.0*dt) iso 1.0 1.0 $(1000.0*dt)
fix 5 all npt temp 300 300 50 iso 1.0 1.0 $(1000.0*dt)
fix 5 all npt temp 300 300 50 iso 1.0 1.0 500

run 300000
Generated 0 of 1 mixed pair_coeff terms from geometric mixing rule
Step          Temp          Press          PotEng        Density         KinEng         TotEng           Lx             Ly             Lz            Xlo            Xhi            Ylo            Yhi            Zlo            Zhi           Volume           Dt            Time           CPU           T/CPU          S/CPU         CPULeft
18605000   1356.0686     -9.1986491     -32005136       0.16762125     4038.1406     -32001098       1610.9979      1610.9979      1610.9979      1694.5011      3305.4989      1694.5011      3305.4989      1694.5011      3305.4989      4.1810458e+09  0.5            9305000        0              0              0              0
Averages over the last 751 of 1501 rows, steps 18755000 to 18905000:
Temp Press PotEng Density KinEng TotEng Lx Ly Lz Xlo Xhi Ylo Yhi Zlo Zhi Volume Dt
303.052 0.997586 -3.21838e+07 0.169561 902.438 -3.21829e+07 1604.83 1604.83 1604.83 1697.58 3302.42 1697.58 3302.42 1697.58 3302.42 4.13323e+09 0.5
Loop time of 30.9442 on 4 procs for 300000 steps with 1000 atoms

# run_style
run_style verlet

# write restart
write_restart ./pgnpmf/01000/equpmf27.res
System init for write_restart ...
Generated 0 of 1 mixed pair_coeff terms from geometric mixing rule
