LAMMPS (23 Jun 2022 - Update 1)
# Read restart
read_restart ./pgnpmf/01000/equpmf126.res
Reading restart file ...
  restart file = 23 Jun 2022, LAMMPS = 23 Jun 2022
  restoring atom style atomic from restart
  orthogonal box = (2108.7618 2108.7618 2108.7618) to (2891.2382 2891.2382 2891.2382)
  restoring pair style table from restart
  1000 atoms
  read_restart CPU = 0.006 seconds

# Settings

pair_style table spline 9941

pair_coeff 1 1 ./pgnpmf/N20.txt DE_GNP 75.6
pair_coeff 2 2 ./pgnpmf/N100.txt DE_GNP 115.92
pair_coeff 1 2 ./pgnpmf/mixed_potential.txt DE_GNP 95.66

#Neigh_list Calc Frequency

neigh_modify delay 0 every 1 check yes

# Saving Frequency (50 frames)

variable ts_save equal 5000

# Dump
#dump_modify 1 first no sort id
#dump 2 all cfg 50000 ./equilibration/trajectory/ovito/dumpgen.tens_*.cfg mass type xs ys zs fx fy fz

# thermo_style
thermo_style custom step temp press pe density ke etotal lx ly lz xlo xhi ylo yhi zlo zhi vol dt time cpu tpcpu spcpu cpuremain

# run info
timestep 0.1
thermo 200

# fix

fix 1 all momentum 1000 linear 1 1 1 angular
variable T equal 300
fix 2 all nvt temp 300 370000 100.0

run 100000
Generated 0 of 1 mixed pair_coeff terms from geometric mixing rule
Unused restart file global fix info:
  fix style: npt, fix ID: 5
  update every 1 steps, delay 0 steps, check yes
Step          Temp          Press          PotEng        Density         KinEng         TotEng           Lx             Ly             Lz            Xlo            Xhi            Ylo            Yhi            Zlo            Zhi           Volume           Dt            Time           CPU           T/CPU          S/CPU         CPULeft
88205000   306.03174      7.8013401     -59611357       1.4628519      911.31027     -59610445       782.47633      782.47633      782.47633      2108.7618      2891.2382      2108.7618      2891.2382      2108.7618      2891.2382      4.7908616e+08  0.1            21985000       0              0              0              0
Averages over the last 251 of 501 rows, steps 88255000 to 88305000:
Temp Press PotEng Density KinEng TotEng Lx Ly Lz Xlo Xhi Ylo Yhi Zlo Zhi Volume Dt
276947 430.202 -5.96112e+07 1.46285 824700 -5.87865e+07 782.476 782.476 782.476 2108.76 2891.24 2108.76 2891.24 2108.76 2891.24 4.79086e+08 0.1
Loop time of 13.8323 on 1 procs for 100000 steps with 1000 atoms

unfix 2

fix 3 all nvt temp 370000 370000 $(100.0*dt) #iso 1.0 1.0 $(1000.0*dt)
fix 3 all nvt temp 370000 370000 10

run 200000
Generated 0 of 1 mixed pair_coeff terms from geometric mixing rule
Step          Temp          Press          PotEng        Density         KinEng         TotEng           Lx             Ly             Lz            Xlo            Xhi            Ylo            Yhi            Zlo            Zhi           Volume           Dt            Time           CPU           T/CPU          S/CPU         CPULeft
88305000   376165.78      816.55093     -59518102       1.4628519      1120157.5     -58397944       782.47633      782.47633      782.47633      2108.7618      2891.2382      2108.7618      2891.2382      2108.7618      2891.2382      4.7908616e+08  0.1            21995000       0              0              0              0
Averages over the last 501 of 1001 rows, steps 88405000 to 88505000:
Temp Press PotEng Density KinEng TotEng Lx Ly Lz Xlo Xhi Ylo Yhi Zlo Zhi Volume Dt
369522 1250.45 -5.91906e+07 1.46285 1.10037e+06 -5.80902e+07 782.476 782.476 782.476 2108.76 2891.24 2108.76 2891.24 2108.76 2891.24 4.79086e+08 0.1
Loop time of 27.6777 on 1 procs for 200000 steps with 1000 atoms

unfix 3

fix 4 all nvt temp 370000 300 100.0

run 100000
Generated 0 of 1 mixed pair_coeff terms from geometric mixing rule
Step          Temp          Press          PotEng        Density         KinEng         TotEng           Lx             Ly             Lz            Xlo            Xhi            Ylo            Yhi            Zlo            Zhi           Volume           Dt            Time           CPU           T/CPU          S/CPU         CPULeft
88505000   363984.66      1179.5075     -59004211       1.4628519      1083884.2     -57920326       782.47633      782.47633      782.47633      2108.7618      2891.2382      2108.7618      2891.2382      2108.7618      2891.2382      4.7908616e+08  0.1            22015000       0              0              0              0
Averages over the last 251 of 501 rows, steps 88555000 to 88605000:
Temp Press PotEng Density KinEng TotEng Lx Ly Lz Xlo Xhi Ylo Yhi Zlo Zhi Volume Dt
96388.5 401.796 -5.93806e+07 1.46285 287029 -5.90936e+07 782.476 782.476 782.476 2108.76 2891.24 2108.76 2891.24 2108.76 2891.24 4.79086e+08 0.1
Loop time of 13.835 on 1 procs for 100000 steps with 1000 atoms

unfix 4

fix 5 all npt temp 300 300 $(100.0*dt) iso 1.0 1.0 $(1000.0*dt)
fix 5 all npt temp 300 300 10 iso 1.0 1.0 $(1000.0*dt)
fix 5 all npt temp 300 300 10 iso 1.0 1.0 100

run 300000
Generated 0 of 1 mixed pair_coeff terms from geometric mixing rule
Step          Temp          Press          PotEng        Density         KinEng         TotEng           Lx             Ly             Lz            Xlo            Xhi            Ylo            Yhi            Zlo            Zhi           Volume           Dt            Time           CPU           T/CPU          S/CPU         CPULeft
88605000   5171.2037      95.102682     -59460765       1.4628519      15398.962     -59445366       782.47633      782.47633      782.47633      2108.7618      2891.2382      2108.7618      2891.2382      2108.7618      2891.2382      4.7908616e+08  0.1            22025000       0              0              0              0
Averages over the last 751 of 1501 rows, steps 88755000 to 88905000:
Temp Press PotEng Density KinEng TotEng Lx Ly Lz Xlo Xhi Ylo Yhi Zlo Zhi Volume Dt
306.542 0.927706 -5.96272e+07 1.46521 912.829 -5.96262e+07 782.056 782.056 782.056 2108.97 2891.03 2108.97 2891.03 2108.97 2891.03 4.78314e+08 0.1
Loop time of 47.2587 on 1 procs for 300000 steps with 1000 atoms

# run_style
run_style verlet

# write restart
write_restart ./pgnpmf/01000/equpmf127.res
System init for write_restart ...
Generated 0 of 1 mixed pair_coeff terms from geometric mixing rule
