LAMMPS (23 Jun 2022 - Update 1)
# Read restart
read_restart ./pgnpmf/01000/equpmf11.res
Reading restart file ...
  restart file = 23 Jun 2022, LAMMPS = 23 Jun 2022
  restoring atom style atomic from restart
  orthogonal box = (1577.5371 1577.5371 1577.5371) to (3422.4629 3422.4629 3422.4629)
  restoring pair style table from restart
  1000 atoms
  read_restart CPU = 0.018 seconds

# Settings

pair_style table spline 9941

pair_coeff 1 1 ./pgnpmf/N20.txt DE_GNP 75.6
pair_coeff 2 2 ./pgnpmf/N100.txt DE_GNP 115.92
pair_coeff 1 2 ./pgnpmf/mixed_potential.txt DE_GNP 95.66

#Neigh_list Calc Frequency

neigh_modify delay 0 every 1 check yes

# Saving Frequency (50 frames)

variable ts_save equal 5000

# Dump
#dump_modify 1 first no sort id
#dump 2 all cfg 50000 ./equilibration/trajectory/ovito/dumpgen.tens_*.cfg mass type xs ys zs fx fy fz

# thermo_style
thermo_style custom step temp press pe density ke etotal lx ly lz xlo xhi ylo yhi zlo zhi vol dt time cpu tpcpu spcpu cpuremain

# run info
timestep 0.5
thermo 200

# fix

fix 1 all momentum 1000 linear 1 1 1 angular
variable T equal 300
fix 2 all nvt temp 300 370000 100.0

run 100000
Generated 0 of 1 mixed pair_coeff terms from geometric mixing rule
Unused restart file global fix info:
  fix style: npt, fix ID: 5
  update every 1 steps, delay 0 steps, check yes
Step          Temp          Press          PotEng        Density         KinEng         TotEng           Lx             Ly             Lz            Xlo            Xhi            Ylo            Yhi            Zlo            Zhi           Volume           Dt            Time           CPU           T/CPU          S/CPU         CPULeft
7705000   309.55807      1.1657798     -26601883       0.11160338     921.81108     -26600961       1844.9257      1844.9257      1844.9257      1577.5371      3422.4629      1577.5371      3422.4629      1577.5371      3422.4629      6.2796675e+09  0.5            3855000        0              0              0              0
Averages over the last 251 of 501 rows, steps 7755000 to 7805000:
Temp Press PotEng Density KinEng TotEng Lx Ly Lz Xlo Xhi Ylo Yhi Zlo Zhi Volume Dt
277508 6.48925 -2.63455e+07 0.111603 826371 -2.55191e+07 1844.93 1844.93 1844.93 1577.54 3422.46 1577.54 3422.46 1577.54 3422.46 6.27967e+09 0.5
Loop time of 7.61533 on 4 procs for 100000 steps with 1000 atoms

unfix 2

fix 3 all nvt temp 370000 370000 $(100.0*dt) #iso 1.0 1.0 $(1000.0*dt)
fix 3 all nvt temp 370000 370000 50

run 200000
Generated 0 of 1 mixed pair_coeff terms from geometric mixing rule
Step          Temp          Press          PotEng        Density         KinEng         TotEng           Lx             Ly             Lz            Xlo            Xhi            Ylo            Yhi            Zlo            Zhi           Volume           Dt            Time           CPU           T/CPU          S/CPU         CPULeft
7805000   368464.06      12.150138     -25956854       0.11160338     1097223       -24859631       1844.9257      1844.9257      1844.9257      1577.5371      3422.4629      1577.5371      3422.4629      1577.5371      3422.4629      6.2796675e+09  0.5            3905000        0              0              0              0
Averages over the last 501 of 1001 rows, steps 7905000 to 8005000:
Temp Press PotEng Density KinEng TotEng Lx Ly Lz Xlo Xhi Ylo Yhi Zlo Zhi Volume Dt
370181 2.68304 -2.54627e+07 0.111603 1.10234e+06 -2.43604e+07 1844.93 1844.93 1844.93 1577.54 3422.46 1577.54 3422.46 1577.54 3422.46 6.27967e+09 0.5
Loop time of 15.3058 on 4 procs for 200000 steps with 1000 atoms

unfix 3

fix 4 all nvt temp 370000 300 100.0

run 100000
Generated 0 of 1 mixed pair_coeff terms from geometric mixing rule
Step          Temp          Press          PotEng        Density         KinEng         TotEng           Lx             Ly             Lz            Xlo            Xhi            Ylo            Yhi            Zlo            Zhi           Volume           Dt            Time           CPU           T/CPU          S/CPU         CPULeft
8005000   367351.22     -4.119047      -25557256       0.11160338     1093909.2     -24463347       1844.9257      1844.9257      1844.9257      1577.5371      3422.4629      1577.5371      3422.4629      1577.5371      3422.4629      6.2796675e+09  0.5            4005000        0              0              0              0
Averages over the last 251 of 501 rows, steps 8055000 to 8105000:
Temp Press PotEng Density KinEng TotEng Lx Ly Lz Xlo Xhi Ylo Yhi Zlo Zhi Volume Dt
92954.3 -12.2686 -2.67518e+07 0.111603 276802 -2.6475e+07 1844.93 1844.93 1844.93 1577.54 3422.46 1577.54 3422.46 1577.54 3422.46 6.27967e+09 0.5
Loop time of 7.63065 on 4 procs for 100000 steps with 1000 atoms

unfix 4

fix 5 all npt temp 300 300 $(100.0*dt) iso 1.0 1.0 $(1000.0*dt)
fix 5 all npt temp 300 300 50 iso 1.0 1.0 $(1000.0*dt)
fix 5 all npt temp 300 300 50 iso 1.0 1.0 500

run 300000
Generated 0 of 1 mixed pair_coeff terms from geometric mixing rule
Step          Temp          Press          PotEng        Density         KinEng         TotEng           Lx             Ly             Lz            Xlo            Xhi            Ylo            Yhi            Zlo            Zhi           Volume           Dt            Time           CPU           T/CPU          S/CPU         CPULeft
8105000   1349.0945     -15.534978     -27278520       0.11160338     4017.373      -27274503       1844.9257      1844.9257      1844.9257      1577.5371      3422.4629      1577.5371      3422.4629      1577.5371      3422.4629      6.2796675e+09  0.5            4055000        0              0              0              0
Averages over the last 751 of 1501 rows, steps 8255000 to 8405000:
Temp Press PotEng Density KinEng TotEng Lx Ly Lz Xlo Xhi Ylo Yhi Zlo Zhi Volume Dt
306.949 1.0077 -2.76942e+07 0.115882 914.041 -2.76933e+07 1821.94 1821.94 1821.94 1589.03 3410.97 1589.03 3410.97 1589.03 3410.97 6.04793e+09 0.5
Loop time of 29.1161 on 4 procs for 300000 steps with 1000 atoms

# run_style
run_style verlet

# write restart
write_restart ./pgnpmf/01000/equpmf12.res
System init for write_restart ...
Generated 0 of 1 mixed pair_coeff terms from geometric mixing rule
