LAMMPS (23 Jun 2022 - Update 1)
# Read restart
read_restart ./pgnpmf/01000/equpmf106.res
Reading restart file ...
  restart file = 23 Jun 2022, LAMMPS = 23 Jun 2022
  restoring atom style atomic from restart
  orthogonal box = (2076.5521 2076.5521 2076.5521) to (2923.4479 2923.4479 2923.4479)
  restoring pair style table from restart
  1000 atoms
  read_restart CPU = 0.006 seconds

# Settings

pair_style table spline 9941

pair_coeff 1 1 ./pgnpmf/N20.txt DE_GNP 75.6
pair_coeff 2 2 ./pgnpmf/N100.txt DE_GNP 115.92
pair_coeff 1 2 ./pgnpmf/mixed_potential.txt DE_GNP 95.66

#Neigh_list Calc Frequency

neigh_modify delay 0 every 1 check yes

# Saving Frequency (50 frames)

variable ts_save equal 5000

# Dump
#dump_modify 1 first no sort id
#dump 2 all cfg 50000 ./equilibration/trajectory/ovito/dumpgen.tens_*.cfg mass type xs ys zs fx fy fz

# thermo_style
thermo_style custom step temp press pe density ke etotal lx ly lz xlo xhi ylo yhi zlo zhi vol dt time cpu tpcpu spcpu cpuremain

# run info
timestep 0.1
thermo 200

# fix

fix 1 all momentum 1000 linear 1 1 1 angular
variable T equal 300
fix 2 all nvt temp 300 370000 100.0

run 100000
Generated 0 of 1 mixed pair_coeff terms from geometric mixing rule
Unused restart file global fix info:
  fix style: npt, fix ID: 5
  update every 1 steps, delay 0 steps, check yes
Step          Temp          Press          PotEng        Density         KinEng         TotEng           Lx             Ly             Lz            Xlo            Xhi            Ylo            Yhi            Zlo            Zhi           Volume           Dt            Time           CPU           T/CPU          S/CPU         CPULeft
74205000   306.98628      0.83203935    -55518698       1.1537824      914.15271     -55517784       846.89588      846.89588      846.89588      2076.5521      2923.4479      2076.5521      2923.4479      2076.5521      2923.4479      6.0742137e+08  0.1            20585000       0              0              0              0
Averages over the last 251 of 501 rows, steps 74255000 to 74305000:
Temp Press PotEng Density KinEng TotEng Lx Ly Lz Xlo Xhi Ylo Yhi Zlo Zhi Volume Dt
277541 354.359 -5.57337e+07 1.15378 826470 -5.49072e+07 846.896 846.896 846.896 2076.55 2923.45 2076.55 2923.45 2076.55 2923.45 6.07421e+08 0.1
Loop time of 12.7011 on 1 procs for 100000 steps with 1000 atoms

unfix 2

fix 3 all nvt temp 370000 370000 $(100.0*dt) #iso 1.0 1.0 $(1000.0*dt)
fix 3 all nvt temp 370000 370000 10

run 200000
Generated 0 of 1 mixed pair_coeff terms from geometric mixing rule
Step          Temp          Press          PotEng        Density         KinEng         TotEng           Lx             Ly             Lz            Xlo            Xhi            Ylo            Yhi            Zlo            Zhi           Volume           Dt            Time           CPU           T/CPU          S/CPU         CPULeft
74305000   374669.51      623.72706     -55776079       1.1537824      1115701.8     -54660377       846.89588      846.89588      846.89588      2076.5521      2923.4479      2076.5521      2923.4479      2076.5521      2923.4479      6.0742137e+08  0.1            20595000       0              0              0              0
Averages over the last 501 of 1001 rows, steps 74405000 to 74505000:
Temp Press PotEng Density KinEng TotEng Lx Ly Lz Xlo Xhi Ylo Yhi Zlo Zhi Volume Dt
369799 569.434 -5.5379e+07 1.15378 1.1012e+06 -5.42778e+07 846.896 846.896 846.896 2076.55 2923.45 2076.55 2923.45 2076.55 2923.45 6.07421e+08 0.1
Loop time of 26.1942 on 1 procs for 200000 steps with 1000 atoms

unfix 3

fix 4 all nvt temp 370000 300 100.0

run 100000
Generated 0 of 1 mixed pair_coeff terms from geometric mixing rule
Step          Temp          Press          PotEng        Density         KinEng         TotEng           Lx             Ly             Lz            Xlo            Xhi            Ylo            Yhi            Zlo            Zhi           Volume           Dt            Time           CPU           T/CPU          S/CPU         CPULeft
74505000   374636.56      443.45383     -55038559       1.1537824      1115603.7     -53922955       846.89588      846.89588      846.89588      2076.5521      2923.4479      2076.5521      2923.4479      2076.5521      2923.4479      6.0742137e+08  0.1            20615000       0              0              0              0
Averages over the last 251 of 501 rows, steps 74555000 to 74605000:
Temp Press PotEng Density KinEng TotEng Lx Ly Lz Xlo Xhi Ylo Yhi Zlo Zhi Volume Dt
95869.8 -170.316 -5.49841e+07 1.15378 285484 -5.46986e+07 846.896 846.896 846.896 2076.55 2923.45 2076.55 2923.45 2076.55 2923.45 6.07421e+08 0.1
Loop time of 12.752 on 1 procs for 100000 steps with 1000 atoms

unfix 4

fix 5 all npt temp 300 300 $(100.0*dt) iso 1.0 1.0 $(1000.0*dt)
fix 5 all npt temp 300 300 10 iso 1.0 1.0 $(1000.0*dt)
fix 5 all npt temp 300 300 10 iso 1.0 1.0 100

run 300000
Generated 0 of 1 mixed pair_coeff terms from geometric mixing rule
Step          Temp          Press          PotEng        Density         KinEng         TotEng           Lx             Ly             Lz            Xlo            Xhi            Ylo            Yhi            Zlo            Zhi           Volume           Dt            Time           CPU           T/CPU          S/CPU         CPULeft
74605000   5125.817      -382.58212     -55140685       1.1537824      15263.808     -55125421       846.89588      846.89588      846.89588      2076.5521      2923.4479      2076.5521      2923.4479      2076.5521      2923.4479      6.0742137e+08  0.1            20625000       0              0              0              0
Averages over the last 751 of 1501 rows, steps 74755000 to 74905000:
Temp Press PotEng Density KinEng TotEng Lx Ly Lz Xlo Xhi Ylo Yhi Zlo Zhi Volume Dt
308.469 0.902377 -5.5663e+07 1.17343 918.568 -5.56621e+07 842.142 842.142 842.142 2078.93 2921.07 2078.93 2921.07 2078.93 2921.07 5.97249e+08 0.1
Loop time of 45.4485 on 1 procs for 300000 steps with 1000 atoms

# run_style
run_style verlet

# write restart
write_restart ./pgnpmf/01000/equpmf107.res
System init for write_restart ...
Generated 0 of 1 mixed pair_coeff terms from geometric mixing rule
