LAMMPS (23 Jun 2022 - Update 1)
# Read restart
read_restart ./pgnpmf/01000/equpmf103.res
Reading restart file ...
  restart file = 23 Jun 2022, LAMMPS = 23 Jun 2022
  restoring atom style atomic from restart
  orthogonal box = (2068.2739 2068.2739 2068.2739) to (2931.7261 2931.7261 2931.7261)
  restoring pair style table from restart
  1000 atoms
  read_restart CPU = 0.005 seconds

# Settings

pair_style table spline 9941

pair_coeff 1 1 ./pgnpmf/N20.txt DE_GNP 75.6
pair_coeff 2 2 ./pgnpmf/N100.txt DE_GNP 115.92
pair_coeff 1 2 ./pgnpmf/mixed_potential.txt DE_GNP 95.66

#Neigh_list Calc Frequency

neigh_modify delay 0 every 1 check yes

# Saving Frequency (50 frames)

variable ts_save equal 5000

# Dump
#dump_modify 1 first no sort id
#dump 2 all cfg 50000 ./equilibration/trajectory/ovito/dumpgen.tens_*.cfg mass type xs ys zs fx fy fz

# thermo_style
thermo_style custom step temp press pe density ke etotal lx ly lz xlo xhi ylo yhi zlo zhi vol dt time cpu tpcpu spcpu cpuremain

# run info
timestep 0.1
thermo 200

# fix

fix 1 all momentum 1000 linear 1 1 1 angular
variable T equal 300
fix 2 all nvt temp 300 370000 100.0

run 100000
Generated 0 of 1 mixed pair_coeff terms from geometric mixing rule
Unused restart file global fix info:
  fix style: npt, fix ID: 5
  update every 1 steps, delay 0 steps, check yes
Step          Temp          Press          PotEng        Density         KinEng         TotEng           Lx             Ly             Lz            Xlo            Xhi            Ylo            Yhi            Zlo            Zhi           Volume           Dt            Time           CPU           T/CPU          S/CPU         CPULeft
72105000   307.81292      1.5553649     -54227989       1.0886774      916.61433     -54227072       863.45211      863.45211      863.45211      2068.2739      2931.7261      2068.2739      2931.7261      2068.2739      2931.7261      6.4374634e+08  0.1            20375000       0              0              0              0
Averages over the last 251 of 501 rows, steps 72155000 to 72205000:
Temp Press PotEng Density KinEng TotEng Lx Ly Lz Xlo Xhi Ylo Yhi Zlo Zhi Volume Dt
276596 243.238 -5.44673e+07 1.08868 823656 -5.36436e+07 863.452 863.452 863.452 2068.27 2931.73 2068.27 2931.73 2068.27 2931.73 6.43746e+08 0.1
Loop time of 12.4418 on 1 procs for 100000 steps with 1000 atoms

unfix 2

fix 3 all nvt temp 370000 370000 $(100.0*dt) #iso 1.0 1.0 $(1000.0*dt)
fix 3 all nvt temp 370000 370000 10

run 200000
Generated 0 of 1 mixed pair_coeff terms from geometric mixing rule
Step          Temp          Press          PotEng        Density         KinEng         TotEng           Lx             Ly             Lz            Xlo            Xhi            Ylo            Yhi            Zlo            Zhi           Volume           Dt            Time           CPU           T/CPU          S/CPU         CPULeft
72205000   369843.95      449.2226      -54581362       1.0886774      1101332.1     -53480030       863.45211      863.45211      863.45211      2068.2739      2931.7261      2068.2739      2931.7261      2068.2739      2931.7261      6.4374634e+08  0.1            20385000       0              0              0              0
Averages over the last 501 of 1001 rows, steps 72305000 to 72405000:
Temp Press PotEng Density KinEng TotEng Lx Ly Lz Xlo Xhi Ylo Yhi Zlo Zhi Volume Dt
369879 455.936 -5.43485e+07 1.08868 1.10144e+06 -5.3247e+07 863.452 863.452 863.452 2068.27 2931.73 2068.27 2931.73 2068.27 2931.73 6.43746e+08 0.1
Loop time of 24.9256 on 1 procs for 200000 steps with 1000 atoms

unfix 3

fix 4 all nvt temp 370000 300 100.0

run 100000
Generated 0 of 1 mixed pair_coeff terms from geometric mixing rule
Step          Temp          Press          PotEng        Density         KinEng         TotEng           Lx             Ly             Lz            Xlo            Xhi            Ylo            Yhi            Zlo            Zhi           Volume           Dt            Time           CPU           T/CPU          S/CPU         CPULeft
72405000   357861.65      269.91624     -54109512       1.0886774      1065650.9     -53043861       863.45211      863.45211      863.45211      2068.2739      2931.7261      2068.2739      2931.7261      2068.2739      2931.7261      6.4374634e+08  0.1            20405000       0              0              0              0
Averages over the last 251 of 501 rows, steps 72455000 to 72505000:
Temp Press PotEng Density KinEng TotEng Lx Ly Lz Xlo Xhi Ylo Yhi Zlo Zhi Volume Dt
95490.8 -300.873 -5.39963e+07 1.08868 284355 -5.37119e+07 863.452 863.452 863.452 2068.27 2931.73 2068.27 2931.73 2068.27 2931.73 6.43746e+08 0.1
Loop time of 12.4113 on 1 procs for 100000 steps with 1000 atoms

unfix 4

fix 5 all npt temp 300 300 $(100.0*dt) iso 1.0 1.0 $(1000.0*dt)
fix 5 all npt temp 300 300 10 iso 1.0 1.0 $(1000.0*dt)
fix 5 all npt temp 300 300 10 iso 1.0 1.0 100

run 300000
Generated 0 of 1 mixed pair_coeff terms from geometric mixing rule
Step          Temp          Press          PotEng        Density         KinEng         TotEng           Lx             Ly             Lz            Xlo            Xhi            Ylo            Yhi            Zlo            Zhi           Volume           Dt            Time           CPU           T/CPU          S/CPU         CPULeft
72505000   5122.3155     -482.88617     -54058047       1.0886774      15253.381     -54042794       863.45211      863.45211      863.45211      2068.2739      2931.7261      2068.2739      2931.7261      2068.2739      2931.7261      6.4374634e+08  0.1            20415000       0              0              0              0
Averages over the last 751 of 1501 rows, steps 72655000 to 72805000:
Temp Press PotEng Density KinEng TotEng Lx Ly Lz Xlo Xhi Ylo Yhi Zlo Zhi Volume Dt
309.228 1.06363 -5.48588e+07 1.1129 920.829 -5.48579e+07 857.141 857.141 857.141 2071.43 2928.57 2071.43 2928.57 2071.43 2928.57 6.29733e+08 0.1
Loop time of 43.4936 on 1 procs for 300000 steps with 1000 atoms

# run_style
run_style verlet

# write restart
write_restart ./pgnpmf/01000/equpmf104.res
System init for write_restart ...
Generated 0 of 1 mixed pair_coeff terms from geometric mixing rule
