LAMMPS (23 Jun 2022 - Update 1)
# Read restart
read_restart ./pgnpmf/01000/equpmf137.res
Reading restart file ...
  restart file = 23 Jun 2022, LAMMPS = 23 Jun 2022
  restoring atom style atomic from restart
  orthogonal box = (2112.3989 2112.3989 2112.3989) to (2887.6011 2887.6011 2887.6011)
  restoring pair style table from restart
  1000 atoms
  read_restart CPU = 0.007 seconds

# Settings

pair_style table spline 9941

pair_coeff 1 1 ./pgnpmf/N20.txt DE_GNP 75.6
pair_coeff 2 2 ./pgnpmf/N100.txt DE_GNP 115.92
pair_coeff 1 2 ./pgnpmf/mixed_potential.txt DE_GNP 95.66

#Neigh_list Calc Frequency

neigh_modify delay 0 every 1 check yes

# Saving Frequency (50 frames)

variable ts_save equal 5000

# Dump
#dump_modify 1 first no sort id
#dump 2 all cfg 50000 ./equilibration/trajectory/ovito/dumpgen.tens_*.cfg mass type xs ys zs fx fy fz

# thermo_style
thermo_style custom step temp press pe density ke etotal lx ly lz xlo xhi ylo yhi zlo zhi vol dt time cpu tpcpu spcpu cpuremain

# run info
timestep 0.1
thermo 200

# fix

fix 1 all momentum 1000 linear 1 1 1 angular
variable T equal 300
fix 2 all nvt temp 300 370000 100.0

run 100000
Generated 0 of 1 mixed pair_coeff terms from geometric mixing rule
Unused restart file global fix info:
  fix style: npt, fix ID: 5
  update every 1 steps, delay 0 steps, check yes
Step          Temp          Press          PotEng        Density         KinEng         TotEng           Lx             Ly             Lz            Xlo            Xhi            Ylo            Yhi            Zlo            Zhi           Volume           Dt            Time           CPU           T/CPU          S/CPU         CPULeft
95905000   305.77056      5.7507963     -60427917       1.5044192      910.53251     -60427006       775.20228      775.20228      775.20228      2112.3989      2887.6011      2112.3989      2887.6011      2112.3989      2887.6011      4.6584895e+08  0.1            22755000       0              0              0              0
Averages over the last 251 of 501 rows, steps 95955000 to 96005000:
Temp Press PotEng Density KinEng TotEng Lx Ly Lz Xlo Xhi Ylo Yhi Zlo Zhi Volume Dt
276706 378.847 -6.02314e+07 1.50442 823982 -5.94074e+07 775.202 775.202 775.202 2112.4 2887.6 2112.4 2887.6 2112.4 2887.6 4.65849e+08 0.1
Loop time of 13.7126 on 1 procs for 100000 steps with 1000 atoms

unfix 2

fix 3 all nvt temp 370000 370000 $(100.0*dt) #iso 1.0 1.0 $(1000.0*dt)
fix 3 all nvt temp 370000 370000 10

run 200000
Generated 0 of 1 mixed pair_coeff terms from geometric mixing rule
Step          Temp          Press          PotEng        Density         KinEng         TotEng           Lx             Ly             Lz            Xlo            Xhi            Ylo            Yhi            Zlo            Zhi           Volume           Dt            Time           CPU           T/CPU          S/CPU         CPULeft
96005000   372138.34      622.60092     -60095059       1.5044192      1108164.4     -58986895       775.20228      775.20228      775.20228      2112.3989      2887.6011      2112.3989      2887.6011      2112.3989      2887.6011      4.6584895e+08  0.1            22765000       0              0              0              0
Averages over the last 501 of 1001 rows, steps 96105000 to 96205000:
Temp Press PotEng Density KinEng TotEng Lx Ly Lz Xlo Xhi Ylo Yhi Zlo Zhi Volume Dt
370007 969.551 -5.98776e+07 1.50442 1.10182e+06 -5.87758e+07 775.202 775.202 775.202 2112.4 2887.6 2112.4 2887.6 2112.4 2887.6 4.65849e+08 0.1
Loop time of 27.7275 on 1 procs for 200000 steps with 1000 atoms

unfix 3

fix 4 all nvt temp 370000 300 100.0

run 100000
Generated 0 of 1 mixed pair_coeff terms from geometric mixing rule
Step          Temp          Press          PotEng        Density         KinEng         TotEng           Lx             Ly             Lz            Xlo            Xhi            Ylo            Yhi            Zlo            Zhi           Volume           Dt            Time           CPU           T/CPU          S/CPU         CPULeft
96205000   375775.01      984.03974     -59867144       1.5044192      1118993.8     -58748150       775.20228      775.20228      775.20228      2112.3989      2887.6011      2112.3989      2887.6011      2112.3989      2887.6011      4.6584895e+08  0.1            22785000       0              0              0              0
Averages over the last 251 of 501 rows, steps 96255000 to 96305000:
Temp Press PotEng Density KinEng TotEng Lx Ly Lz Xlo Xhi Ylo Yhi Zlo Zhi Volume Dt
95740 329.314 -5.98016e+07 1.50442 285097 -5.95165e+07 775.202 775.202 775.202 2112.4 2887.6 2112.4 2887.6 2112.4 2887.6 4.65849e+08 0.1
Loop time of 14.0775 on 1 procs for 100000 steps with 1000 atoms

unfix 4

fix 5 all npt temp 300 300 $(100.0*dt) iso 1.0 1.0 $(1000.0*dt)
fix 5 all npt temp 300 300 10 iso 1.0 1.0 $(1000.0*dt)
fix 5 all npt temp 300 300 10 iso 1.0 1.0 100

run 300000
Generated 0 of 1 mixed pair_coeff terms from geometric mixing rule
Step          Temp          Press          PotEng        Density         KinEng         TotEng           Lx             Ly             Lz            Xlo            Xhi            Ylo            Yhi            Zlo            Zhi           Volume           Dt            Time           CPU           T/CPU          S/CPU         CPULeft
96305000   5156.5929      34.471016     -59935972       1.5044192      15355.453     -59920616       775.20228      775.20228      775.20228      2112.3989      2887.6011      2112.3989      2887.6011      2112.3989      2887.6011      4.6584895e+08  0.1            22795000       0              0              0              0
Averages over the last 751 of 1501 rows, steps 96455000 to 96605000:
Temp Press PotEng Density KinEng TotEng Lx Ly Lz Xlo Xhi Ylo Yhi Zlo Zhi Volume Dt
307.43 1.04768 -6.01468e+07 1.50966 915.474 -6.01459e+07 774.305 774.305 774.305 2112.85 2887.15 2112.85 2887.15 2112.85 2887.15 4.64233e+08 0.1
Loop time of 48.0184 on 1 procs for 300000 steps with 1000 atoms

# run_style
run_style verlet

# write restart
write_restart ./pgnpmf/01000/equpmf138.res
System init for write_restart ...
Generated 0 of 1 mixed pair_coeff terms from geometric mixing rule
