LAMMPS (23 Jun 2022 - Update 1)
# Read restart
read_restart ./pgnpmf/01000/equpmf51.res
Reading restart file ...
  restart file = 23 Jun 2022, LAMMPS = 23 Jun 2022
  restoring atom style atomic from restart
  orthogonal box = (1802.4246 1802.4246 1802.4246) to (3197.5754 3197.5754 3197.5754)
  restoring pair style table from restart
  1000 atoms
  read_restart CPU = 0.023 seconds

# Settings

pair_style table spline 9941

pair_coeff 1 1 ./pgnpmf/N20.txt DE_GNP 75.6
pair_coeff 2 2 ./pgnpmf/N100.txt DE_GNP 115.92
pair_coeff 1 2 ./pgnpmf/mixed_potential.txt DE_GNP 95.66

#Neigh_list Calc Frequency

neigh_modify delay 0 every 1 check yes

# Saving Frequency (50 frames)

variable ts_save equal 5000

# Dump
#dump_modify 1 first no sort id
#dump 2 all cfg 50000 ./equilibration/trajectory/ovito/dumpgen.tens_*.cfg mass type xs ys zs fx fy fz

# thermo_style
thermo_style custom step temp press pe density ke etotal lx ly lz xlo xhi ylo yhi zlo zhi vol dt time cpu tpcpu spcpu cpuremain

# run info
timestep 0.1
thermo 200

# fix

fix 1 all momentum 1000 linear 1 1 1 angular
variable T equal 300
fix 2 all nvt temp 300 370000 100.0

run 100000
Generated 0 of 1 mixed pair_coeff terms from geometric mixing rule
Unused restart file global fix info:
  fix style: npt, fix ID: 5
  update every 1 steps, delay 0 steps, check yes
Step          Temp          Press          PotEng        Density         KinEng         TotEng           Lx             Ly             Lz            Xlo            Xhi            Ylo            Yhi            Zlo            Zhi           Volume           Dt            Time           CPU           T/CPU          S/CPU         CPULeft
35705000   310.00029      1.278333      -40062443       0.25807773     923.12792     -40061520       1395.1508      1395.1508      1395.1508      1802.4246      3197.5754      1802.4246      3197.5754      1802.4246      3197.5754      2.7155854e+09  0.1            16735000       0              0              0              0
Averages over the last 251 of 501 rows, steps 35755000 to 35805000:
Temp Press PotEng Density KinEng TotEng Lx Ly Lz Xlo Xhi Ylo Yhi Zlo Zhi Volume Dt
277147 -16.3649 -3.96782e+07 0.258078 825297 -3.88529e+07 1395.15 1395.15 1395.15 1802.42 3197.58 1802.42 3197.58 1802.42 3197.58 2.71559e+09 0.1
Loop time of 12.0205 on 4 procs for 100000 steps with 1000 atoms

unfix 2

fix 3 all nvt temp 370000 370000 $(100.0*dt) #iso 1.0 1.0 $(1000.0*dt)
fix 3 all nvt temp 370000 370000 10

run 200000
Generated 0 of 1 mixed pair_coeff terms from geometric mixing rule
Step          Temp          Press          PotEng        Density         KinEng         TotEng           Lx             Ly             Lz            Xlo            Xhi            Ylo            Yhi            Zlo            Zhi           Volume           Dt            Time           CPU           T/CPU          S/CPU         CPULeft
35805000   371230.04      36.450394     -39734725       0.25807773     1105459.7     -38629265       1395.1508      1395.1508      1395.1508      1802.4246      3197.5754      1802.4246      3197.5754      1802.4246      3197.5754      2.7155854e+09  0.1            16745000       0              0              0              0
Averages over the last 501 of 1001 rows, steps 35905000 to 36005000:
Temp Press PotEng Density KinEng TotEng Lx Ly Lz Xlo Xhi Ylo Yhi Zlo Zhi Volume Dt
370027 63.4398 -3.94978e+07 0.258078 1.10188e+06 -3.83959e+07 1395.15 1395.15 1395.15 1802.42 3197.58 1802.42 3197.58 1802.42 3197.58 2.71559e+09 0.1
Loop time of 24.0818 on 4 procs for 200000 steps with 1000 atoms

unfix 3

fix 4 all nvt temp 370000 300 100.0

run 100000
Generated 0 of 1 mixed pair_coeff terms from geometric mixing rule
Step          Temp          Press          PotEng        Density         KinEng         TotEng           Lx             Ly             Lz            Xlo            Xhi            Ylo            Yhi            Zlo            Zhi           Volume           Dt            Time           CPU           T/CPU          S/CPU         CPULeft
36005000   365640.6       17.691687     -39023240       0.25807773     1088815.3     -37934425       1395.1508      1395.1508      1395.1508      1802.4246      3197.5754      1802.4246      3197.5754      1802.4246      3197.5754      2.7155854e+09  0.1            16765000       0              0              0              0
Averages over the last 251 of 501 rows, steps 36055000 to 36105000:
Temp Press PotEng Density KinEng TotEng Lx Ly Lz Xlo Xhi Ylo Yhi Zlo Zhi Volume Dt
95279.8 -110.449 -3.87889e+07 0.258078 283727 -3.85051e+07 1395.15 1395.15 1395.15 1802.42 3197.58 1802.42 3197.58 1802.42 3197.58 2.71559e+09 0.1
Loop time of 11.6973 on 4 procs for 100000 steps with 1000 atoms

unfix 4

fix 5 all npt temp 300 300 $(100.0*dt) iso 1.0 1.0 $(1000.0*dt)
fix 5 all npt temp 300 300 10 iso 1.0 1.0 $(1000.0*dt)
fix 5 all npt temp 300 300 10 iso 1.0 1.0 100

run 300000
Generated 0 of 1 mixed pair_coeff terms from geometric mixing rule
Step          Temp          Press          PotEng        Density         KinEng         TotEng           Lx             Ly             Lz            Xlo            Xhi            Ylo            Yhi            Zlo            Zhi           Volume           Dt            Time           CPU           T/CPU          S/CPU         CPULeft
36105000   5020.2522     -151.38259     -38815573       0.25807773     14949.454     -38800624       1395.1508      1395.1508      1395.1508      1802.4246      3197.5754      1802.4246      3197.5754      1802.4246      3197.5754      2.7155854e+09  0.1            16775000       0              0              0              0
Averages over the last 751 of 1501 rows, steps 36255000 to 36405000:
Temp Press PotEng Density KinEng TotEng Lx Ly Lz Xlo Xhi Ylo Yhi Zlo Zhi Volume Dt
311.836 1.01849 -4.00316e+07 0.270015 928.594 -4.00307e+07 1374.28 1374.28 1374.28 1812.86 3187.14 1812.86 3187.14 1812.86 3187.14 2.59554e+09 0.1
Loop time of 44.6957 on 4 procs for 300000 steps with 1000 atoms

# run_style
run_style verlet

# write restart
write_restart ./pgnpmf/01000/equpmf52.res
System init for write_restart ...
Generated 0 of 1 mixed pair_coeff terms from geometric mixing rule
