LAMMPS (23 Jun 2022 - Update 1)
# Read restart
read_restart ./pgnpmf/01000/equpmf54.res
Reading restart file ...
  restart file = 23 Jun 2022, LAMMPS = 23 Jun 2022
  restoring atom style atomic from restart
  orthogonal box = (1834.9283 1834.9283 1834.9283) to (3165.0717 3165.0717 3165.0717)
  restoring pair style table from restart
  1000 atoms
  read_restart CPU = 0.029 seconds

# Settings

pair_style table spline 9941

pair_coeff 1 1 ./pgnpmf/N20.txt DE_GNP 75.6
pair_coeff 2 2 ./pgnpmf/N100.txt DE_GNP 115.92
pair_coeff 1 2 ./pgnpmf/mixed_potential.txt DE_GNP 95.66

#Neigh_list Calc Frequency

neigh_modify delay 0 every 1 check yes

# Saving Frequency (50 frames)

variable ts_save equal 5000

# Dump
#dump_modify 1 first no sort id
#dump 2 all cfg 50000 ./equilibration/trajectory/ovito/dumpgen.tens_*.cfg mass type xs ys zs fx fy fz

# thermo_style
thermo_style custom step temp press pe density ke etotal lx ly lz xlo xhi ylo yhi zlo zhi vol dt time cpu tpcpu spcpu cpuremain

# run info
timestep 0.1
thermo 200

# fix

fix 1 all momentum 1000 linear 1 1 1 angular
variable T equal 300
fix 2 all nvt temp 300 370000 100.0

run 100000
Generated 0 of 1 mixed pair_coeff terms from geometric mixing rule
Unused restart file global fix info:
  fix style: npt, fix ID: 5
  update every 1 steps, delay 0 steps, check yes
Step          Temp          Press          PotEng        Density         KinEng         TotEng           Lx             Ly             Lz            Xlo            Xhi            Ylo            Yhi            Zlo            Zhi           Volume           Dt            Time           CPU           T/CPU          S/CPU         CPULeft
37805000   309.54455      0.81002362    -40565477       0.29779587     921.77081     -40564555       1330.1433      1330.1433      1330.1433      1834.9283      3165.0717      1834.9283      3165.0717      1834.9283      3165.0717      2.3533977e+09  0.1            16945000       0              0              0              0
Averages over the last 251 of 501 rows, steps 37855000 to 37905000:
Temp Press PotEng Density KinEng TotEng Lx Ly Lz Xlo Xhi Ylo Yhi Zlo Zhi Volume Dt
276448 -4.19681 -4.05216e+07 0.297796 823215 -3.96984e+07 1330.14 1330.14 1330.14 1834.93 3165.07 1834.93 3165.07 1834.93 3165.07 2.3534e+09 0.1
Loop time of 12.7979 on 4 procs for 100000 steps with 1000 atoms

unfix 2

fix 3 all nvt temp 370000 370000 $(100.0*dt) #iso 1.0 1.0 $(1000.0*dt)
fix 3 all nvt temp 370000 370000 10

run 200000
Generated 0 of 1 mixed pair_coeff terms from geometric mixing rule
Step          Temp          Press          PotEng        Density         KinEng         TotEng           Lx             Ly             Lz            Xlo            Xhi            Ylo            Yhi            Zlo            Zhi           Volume           Dt            Time           CPU           T/CPU          S/CPU         CPULeft
37905000   360803.13      62.739183     -40493701       0.29779587     1074410.1     -39419291       1330.1433      1330.1433      1330.1433      1834.9283      3165.0717      1834.9283      3165.0717      1834.9283      3165.0717      2.3533977e+09  0.1            16955000       0              0              0              0
Averages over the last 501 of 1001 rows, steps 38005000 to 38105000:
Temp Press PotEng Density KinEng TotEng Lx Ly Lz Xlo Xhi Ylo Yhi Zlo Zhi Volume Dt
370018 74.1908 -4.01429e+07 0.297796 1.10185e+06 -3.90411e+07 1330.14 1330.14 1330.14 1834.93 3165.07 1834.93 3165.07 1834.93 3165.07 2.3534e+09 0.1
Loop time of 25.695 on 4 procs for 200000 steps with 1000 atoms

unfix 3

fix 4 all nvt temp 370000 300 100.0

run 100000
Generated 0 of 1 mixed pair_coeff terms from geometric mixing rule
Step          Temp          Press          PotEng        Density         KinEng         TotEng           Lx             Ly             Lz            Xlo            Xhi            Ylo            Yhi            Zlo            Zhi           Volume           Dt            Time           CPU           T/CPU          S/CPU         CPULeft
38105000   367629.73      45.55309      -39767370       0.29779587     1094738.6     -38672632       1330.1433      1330.1433      1330.1433      1834.9283      3165.0717      1834.9283      3165.0717      1834.9283      3165.0717      2.3533977e+09  0.1            16975000       0              0              0              0
Averages over the last 251 of 501 rows, steps 38155000 to 38205000:
Temp Press PotEng Density KinEng TotEng Lx Ly Lz Xlo Xhi Ylo Yhi Zlo Zhi Volume Dt
95201.7 -121.075 -3.95807e+07 0.297796 283495 -3.92972e+07 1330.14 1330.14 1330.14 1834.93 3165.07 1834.93 3165.07 1834.93 3165.07 2.3534e+09 0.1
Loop time of 12.3961 on 4 procs for 100000 steps with 1000 atoms

unfix 4

fix 5 all npt temp 300 300 $(100.0*dt) iso 1.0 1.0 $(1000.0*dt)
fix 5 all npt temp 300 300 10 iso 1.0 1.0 $(1000.0*dt)
fix 5 all npt temp 300 300 10 iso 1.0 1.0 100

run 300000
Generated 0 of 1 mixed pair_coeff terms from geometric mixing rule
Step          Temp          Press          PotEng        Density         KinEng         TotEng           Lx             Ly             Lz            Xlo            Xhi            Ylo            Yhi            Zlo            Zhi           Volume           Dt            Time           CPU           T/CPU          S/CPU         CPULeft
38205000   5063.1547     -162.37377     -39625963       0.29779587     15077.21      -39610886       1330.1433      1330.1433      1330.1433      1834.9283      3165.0717      1834.9283      3165.0717      1834.9283      3165.0717      2.3533977e+09  0.1            16985000       0              0              0              0
Averages over the last 751 of 1501 rows, steps 38355000 to 38505000:
Temp Press PotEng Density KinEng TotEng Lx Ly Lz Xlo Xhi Ylo Yhi Zlo Zhi Volume Dt
312.037 0.979266 -4.0669e+07 0.310773 929.193 -4.06681e+07 1311.37 1311.37 1311.37 1844.32 3155.68 1844.32 3155.68 1844.32 3155.68 2.25514e+09 0.1
Loop time of 47.4142 on 4 procs for 300000 steps with 1000 atoms

# run_style
run_style verlet

# write restart
write_restart ./pgnpmf/01000/equpmf55.res
System init for write_restart ...
Generated 0 of 1 mixed pair_coeff terms from geometric mixing rule
