LAMMPS (23 Jun 2022 - Update 1)
# Read restart
read_restart ./pgnpmf/01000/equpmf150.res
Reading restart file ...
  restart file = 23 Jun 2022, LAMMPS = 23 Jun 2022
  restoring atom style atomic from restart
  orthogonal box = (2114.3421 2114.3421 2114.3421) to (2885.6579 2885.6579 2885.6579)
  restoring pair style table from restart
  1000 atoms
  read_restart CPU = 0.005 seconds

# Settings

pair_style table spline 9941

pair_coeff 1 1 ./pgnpmf/N20.txt DE_GNP 75.6
pair_coeff 2 2 ./pgnpmf/N100.txt DE_GNP 115.92
pair_coeff 1 2 ./pgnpmf/mixed_potential.txt DE_GNP 95.66

#Neigh_list Calc Frequency

neigh_modify delay 0 every 1 check yes

# Saving Frequency (50 frames)

variable ts_save equal 5000

# Dump
#dump_modify 1 first no sort id
#dump 2 all cfg 50000 ./equilibration/trajectory/ovito/dumpgen.tens_*.cfg mass type xs ys zs fx fy fz

# thermo_style
thermo_style custom step temp press pe density ke etotal lx ly lz xlo xhi ylo yhi zlo zhi vol dt time cpu tpcpu spcpu cpuremain

# run info
timestep 0.1
thermo 200

# fix

fix 1 all momentum 1000 linear 1 1 1 angular
variable T equal 300
fix 2 all nvt temp 300 370000 100.0

run 100000
Generated 0 of 1 mixed pair_coeff terms from geometric mixing rule
Unused restart file global fix info:
  fix style: npt, fix ID: 5
  update every 1 steps, delay 0 steps, check yes
Step          Temp          Press          PotEng        Density         KinEng         TotEng           Lx             Ly             Lz            Xlo            Xhi            Ylo            Yhi            Zlo            Zhi           Volume           Dt            Time           CPU           T/CPU          S/CPU         CPULeft
105005000   305.9974      -5.136905      -60486640       1.527275       911.208       -60485729       771.31583      771.31583      771.31583      2114.3421      2885.6579      2114.3421      2885.6579      2114.3421      2885.6579      4.5887748e+08  0.1            23665000       0              0              0              0
Averages over the last 251 of 501 rows, steps 105055000 to 105105000:
Temp Press PotEng Density KinEng TotEng Lx Ly Lz Xlo Xhi Ylo Yhi Zlo Zhi Volume Dt
276716 359.121 -6.03619e+07 1.52727 824013 -5.95379e+07 771.316 771.316 771.316 2114.34 2885.66 2114.34 2885.66 2114.34 2885.66 4.58877e+08 0.1
Loop time of 16.9199 on 1 procs for 100000 steps with 1000 atoms

unfix 2

fix 3 all nvt temp 370000 370000 $(100.0*dt) #iso 1.0 1.0 $(1000.0*dt)
fix 3 all nvt temp 370000 370000 10

run 200000
Generated 0 of 1 mixed pair_coeff terms from geometric mixing rule
Step          Temp          Press          PotEng        Density         KinEng         TotEng           Lx             Ly             Lz            Xlo            Xhi            Ylo            Yhi            Zlo            Zhi           Volume           Dt            Time           CPU           T/CPU          S/CPU         CPULeft
105105000   371419.96      553.84341     -60234923       1.527275       1106025.2     -59128898       771.31583      771.31583      771.31583      2114.3421      2885.6579      2114.3421      2885.6579      2114.3421      2885.6579      4.5887748e+08  0.1            23675000       0              0              0              0
Averages over the last 501 of 1001 rows, steps 105205000 to 105305000:
Temp Press PotEng Density KinEng TotEng Lx Ly Lz Xlo Xhi Ylo Yhi Zlo Zhi Volume Dt
370090 1210.06 -6.02047e+07 1.52727 1.10207e+06 -5.91026e+07 771.316 771.316 771.316 2114.34 2885.66 2114.34 2885.66 2114.34 2885.66 4.58877e+08 0.1
Loop time of 34.0865 on 1 procs for 200000 steps with 1000 atoms

unfix 3

fix 4 all nvt temp 370000 300 100.0

run 100000
Generated 0 of 1 mixed pair_coeff terms from geometric mixing rule
Step          Temp          Press          PotEng        Density         KinEng         TotEng           Lx             Ly             Lz            Xlo            Xhi            Ylo            Yhi            Zlo            Zhi           Volume           Dt            Time           CPU           T/CPU          S/CPU         CPULeft
105305000   375355.4       1422.4553     -60226003       1.527275       1117744.3     -59108258       771.31583      771.31583      771.31583      2114.3421      2885.6579      2114.3421      2885.6579      2114.3421      2885.6579      4.5887748e+08  0.1            23695000       0              0              0              0
Averages over the last 251 of 501 rows, steps 105355000 to 105405000:
Temp Press PotEng Density KinEng TotEng Lx Ly Lz Xlo Xhi Ylo Yhi Zlo Zhi Volume Dt
96551.4 849.654 -6.03945e+07 1.52727 287514 -6.0107e+07 771.316 771.316 771.316 2114.34 2885.66 2114.34 2885.66 2114.34 2885.66 4.58877e+08 0.1
Loop time of 17.0487 on 1 procs for 100000 steps with 1000 atoms

unfix 4

fix 5 all npt temp 300 300 $(100.0*dt) iso 1.0 1.0 $(1000.0*dt)
fix 5 all npt temp 300 300 10 iso 1.0 1.0 $(1000.0*dt)
fix 5 all npt temp 300 300 10 iso 1.0 1.0 100

run 300000
Generated 0 of 1 mixed pair_coeff terms from geometric mixing rule
Step          Temp          Press          PotEng        Density         KinEng         TotEng           Lx             Ly             Lz            Xlo            Xhi            Ylo            Yhi            Zlo            Zhi           Volume           Dt            Time           CPU           T/CPU          S/CPU         CPULeft
105405000   5225.3208      560.85683     -60535398       1.527275       15560.113     -60519838       771.31583      771.31583      771.31583      2114.3421      2885.6579      2114.3421      2885.6579      2114.3421      2885.6579      4.5887748e+08  0.1            23705000       0              0              0              0
Averages over the last 751 of 1501 rows, steps 105555000 to 105705000:
Temp Press PotEng Density KinEng TotEng Lx Ly Lz Xlo Xhi Ylo Yhi Zlo Zhi Volume Dt
306.41 1.00548 -6.04696e+07 1.51617 912.438 -6.04687e+07 773.195 773.195 773.195 2113.4 2886.6 2113.4 2886.6 2113.4 2886.6 4.62239e+08 0.1
Loop time of 58.9591 on 1 procs for 300000 steps with 1000 atoms

# run_style
run_style verlet

# write restart
write_restart ./pgnpmf/01000/equpmf151.res
System init for write_restart ...
Generated 0 of 1 mixed pair_coeff terms from geometric mixing rule
