LAMMPS (23 Jun 2022 - Update 1)
# Read restart
read_restart ./pgnpmf/01000/equpmf108.res
Reading restart file ...
  restart file = 23 Jun 2022, LAMMPS = 23 Jun 2022
  restoring atom style atomic from restart
  orthogonal box = (2082.1583 2082.1583 2082.1583) to (2917.8417 2917.8417 2917.8417)
  restoring pair style table from restart
  1000 atoms
  read_restart CPU = 0.005 seconds

# Settings

pair_style table spline 9941

pair_coeff 1 1 ./pgnpmf/N20.txt DE_GNP 75.6
pair_coeff 2 2 ./pgnpmf/N100.txt DE_GNP 115.92
pair_coeff 1 2 ./pgnpmf/mixed_potential.txt DE_GNP 95.66

#Neigh_list Calc Frequency

neigh_modify delay 0 every 1 check yes

# Saving Frequency (50 frames)

variable ts_save equal 5000

# Dump
#dump_modify 1 first no sort id
#dump 2 all cfg 50000 ./equilibration/trajectory/ovito/dumpgen.tens_*.cfg mass type xs ys zs fx fy fz

# thermo_style
thermo_style custom step temp press pe density ke etotal lx ly lz xlo xhi ylo yhi zlo zhi vol dt time cpu tpcpu spcpu cpuremain

# run info
timestep 0.1
thermo 200

# fix

fix 1 all momentum 1000 linear 1 1 1 angular
variable T equal 300
fix 2 all nvt temp 300 370000 100.0

run 100000
Generated 0 of 1 mixed pair_coeff terms from geometric mixing rule
Unused restart file global fix info:
  fix style: npt, fix ID: 5
  update every 1 steps, delay 0 steps, check yes
Step          Temp          Press          PotEng        Density         KinEng         TotEng           Lx             Ly             Lz            Xlo            Xhi            Ylo            Yhi            Zlo            Zhi           Volume           Dt            Time           CPU           T/CPU          S/CPU         CPULeft
75605000   306.88921      4.3693459     -56307418       1.2008496      913.86365     -56306504       835.68344      835.68344      835.68344      2082.1583      2917.8417      2082.1583      2917.8417      2082.1583      2917.8417      5.8361359e+08  0.1            20725000       0              0              0              0
Averages over the last 251 of 501 rows, steps 75655000 to 75705000:
Temp Press PotEng Density KinEng TotEng Lx Ly Lz Xlo Xhi Ylo Yhi Zlo Zhi Volume Dt
277542 281.081 -5.62853e+07 1.20085 826473 -5.54588e+07 835.683 835.683 835.683 2082.16 2917.84 2082.16 2917.84 2082.16 2917.84 5.83614e+08 0.1
Loop time of 13.1268 on 1 procs for 100000 steps with 1000 atoms

unfix 2

fix 3 all nvt temp 370000 370000 $(100.0*dt) #iso 1.0 1.0 $(1000.0*dt)
fix 3 all nvt temp 370000 370000 10

run 200000
Generated 0 of 1 mixed pair_coeff terms from geometric mixing rule
Step          Temp          Press          PotEng        Density         KinEng         TotEng           Lx             Ly             Lz            Xlo            Xhi            Ylo            Yhi            Zlo            Zhi           Volume           Dt            Time           CPU           T/CPU          S/CPU         CPULeft
75705000   373637.55      547.37955     -56237657       1.2008496      1112628.8     -55125028       835.68344      835.68344      835.68344      2082.1583      2917.8417      2082.1583      2917.8417      2082.1583      2917.8417      5.8361359e+08  0.1            20735000       0              0              0              0
Averages over the last 501 of 1001 rows, steps 75805000 to 75905000:
Temp Press PotEng Density KinEng TotEng Lx Ly Lz Xlo Xhi Ylo Yhi Zlo Zhi Volume Dt
370021 578.583 -5.5873e+07 1.20085 1.10186e+06 -5.47711e+07 835.683 835.683 835.683 2082.16 2917.84 2082.16 2917.84 2082.16 2917.84 5.83614e+08 0.1
Loop time of 26.7022 on 1 procs for 200000 steps with 1000 atoms

unfix 3

fix 4 all nvt temp 370000 300 100.0

run 100000
Generated 0 of 1 mixed pair_coeff terms from geometric mixing rule
Step          Temp          Press          PotEng        Density         KinEng         TotEng           Lx             Ly             Lz            Xlo            Xhi            Ylo            Yhi            Zlo            Zhi           Volume           Dt            Time           CPU           T/CPU          S/CPU         CPULeft
75905000   367605.01      508.628       -55477953       1.2008496      1094664.9     -54383288       835.68344      835.68344      835.68344      2082.1583      2917.8417      2082.1583      2917.8417      2082.1583      2917.8417      5.8361359e+08  0.1            20755000       0              0              0              0
Averages over the last 251 of 501 rows, steps 75955000 to 76005000:
Temp Press PotEng Density KinEng TotEng Lx Ly Lz Xlo Xhi Ylo Yhi Zlo Zhi Volume Dt
96273.5 -169.005 -5.54617e+07 1.20085 286686 -5.5175e+07 835.683 835.683 835.683 2082.16 2917.84 2082.16 2917.84 2082.16 2917.84 5.83614e+08 0.1
Loop time of 13.1972 on 1 procs for 100000 steps with 1000 atoms

unfix 4

fix 5 all npt temp 300 300 $(100.0*dt) iso 1.0 1.0 $(1000.0*dt)
fix 5 all npt temp 300 300 10 iso 1.0 1.0 $(1000.0*dt)
fix 5 all npt temp 300 300 10 iso 1.0 1.0 100

run 300000
Generated 0 of 1 mixed pair_coeff terms from geometric mixing rule
Step          Temp          Press          PotEng        Density         KinEng         TotEng           Lx             Ly             Lz            Xlo            Xhi            Ylo            Yhi            Zlo            Zhi           Volume           Dt            Time           CPU           T/CPU          S/CPU         CPULeft
76005000   5071.5536     -392.7607      -55494194       1.2008496      15102.221     -55479092       835.68344      835.68344      835.68344      2082.1583      2917.8417      2082.1583      2917.8417      2082.1583      2917.8417      5.8361359e+08  0.1            20765000       0              0              0              0
Averages over the last 751 of 1501 rows, steps 76155000 to 76305000:
Temp Press PotEng Density KinEng TotEng Lx Ly Lz Xlo Xhi Ylo Yhi Zlo Zhi Volume Dt
308.119 1.01597 -5.61026e+07 1.22034 917.527 -5.61017e+07 831.21 831.21 831.21 2084.4 2915.6 2084.4 2915.6 2084.4 2915.6 5.74291e+08 0.1
Loop time of 46.207 on 1 procs for 300000 steps with 1000 atoms

# run_style
run_style verlet

# write restart
write_restart ./pgnpmf/01000/equpmf109.res
System init for write_restart ...
Generated 0 of 1 mixed pair_coeff terms from geometric mixing rule
