LAMMPS (23 Jun 2022 - Update 1)
# Read restart
read_restart ./pgnpmf/01000/equpmf20.res
Reading restart file ...
  restart file = 23 Jun 2022, LAMMPS = 23 Jun 2022
  restoring atom style atomic from restart
  orthogonal box = (1665.6115 1665.6115 1665.6115) to (3334.3885 3334.3885 3334.3885)
  restoring pair style table from restart
  1000 atoms
  read_restart CPU = 0.014 seconds

# Settings

pair_style table spline 9941

pair_coeff 1 1 ./pgnpmf/N20.txt DE_GNP 75.6
pair_coeff 2 2 ./pgnpmf/N100.txt DE_GNP 115.92
pair_coeff 1 2 ./pgnpmf/mixed_potential.txt DE_GNP 95.66

#Neigh_list Calc Frequency

neigh_modify delay 0 every 1 check yes

# Saving Frequency (50 frames)

variable ts_save equal 5000

# Dump
#dump_modify 1 first no sort id
#dump 2 all cfg 50000 ./equilibration/trajectory/ovito/dumpgen.tens_*.cfg mass type xs ys zs fx fy fz

# thermo_style
thermo_style custom step temp press pe density ke etotal lx ly lz xlo xhi ylo yhi zlo zhi vol dt time cpu tpcpu spcpu cpuremain

# run info
timestep 0.5
thermo 200

# fix

fix 1 all momentum 1000 linear 1 1 1 angular
variable T equal 300
fix 2 all nvt temp 300 370000 100.0

run 100000
Generated 0 of 1 mixed pair_coeff terms from geometric mixing rule
Unused restart file global fix info:
  fix style: npt, fix ID: 5
  update every 1 steps, delay 0 steps, check yes
Step          Temp          Press          PotEng        Density         KinEng         TotEng           Lx             Ly             Lz            Xlo            Xhi            Ylo            Yhi            Zlo            Zhi           Volume           Dt            Time           CPU           T/CPU          S/CPU         CPULeft
14005000   303.36165      1.0265273     -30635926       0.15080619     903.35919     -30635022       1668.7769      1668.7769      1668.7769      1665.6115      3334.3885      1665.6115      3334.3885      1665.6115      3334.3885      4.6472372e+09  0.5            7005000        0              0              0              0
Averages over the last 251 of 501 rows, steps 14055000 to 14105000:
Temp Press PotEng Density KinEng TotEng Lx Ly Lz Xlo Xhi Ylo Yhi Zlo Zhi Volume Dt
277517 5.33281 -2.9955e+07 0.150806 826397 -2.91286e+07 1668.78 1668.78 1668.78 1665.61 3334.39 1665.61 3334.39 1665.61 3334.39 4.64724e+09 0.5
Loop time of 8.19065 on 4 procs for 100000 steps with 1000 atoms

unfix 2

fix 3 all nvt temp 370000 370000 $(100.0*dt) #iso 1.0 1.0 $(1000.0*dt)
fix 3 all nvt temp 370000 370000 50

run 200000
Generated 0 of 1 mixed pair_coeff terms from geometric mixing rule
Step          Temp          Press          PotEng        Density         KinEng         TotEng           Lx             Ly             Lz            Xlo            Xhi            Ylo            Yhi            Zlo            Zhi           Volume           Dt            Time           CPU           T/CPU          S/CPU         CPULeft
14105000   363313.51     -8.7013706     -29420332       0.15080619     1081885.6     -28338447       1668.7769      1668.7769      1668.7769      1665.6115      3334.3885      1665.6115      3334.3885      1665.6115      3334.3885      4.6472372e+09  0.5            7055000        0              0              0              0
Averages over the last 501 of 1001 rows, steps 14205000 to 14305000:
Temp Press PotEng Density KinEng TotEng Lx Ly Lz Xlo Xhi Ylo Yhi Zlo Zhi Volume Dt
370111 4.92496 -2.90778e+07 0.150806 1.10213e+06 -2.79756e+07 1668.78 1668.78 1668.78 1665.61 3334.39 1665.61 3334.39 1665.61 3334.39 4.64724e+09 0.5
Loop time of 16.3165 on 4 procs for 200000 steps with 1000 atoms

unfix 3

fix 4 all nvt temp 370000 300 100.0

run 100000
Generated 0 of 1 mixed pair_coeff terms from geometric mixing rule
Step          Temp          Press          PotEng        Density         KinEng         TotEng           Lx             Ly             Lz            Xlo            Xhi            Ylo            Yhi            Zlo            Zhi           Volume           Dt            Time           CPU           T/CPU          S/CPU         CPULeft
14305000   355131.63      1.6928195     -29259370       0.15080619     1057521.3     -28201848       1668.7769      1668.7769      1668.7769      1665.6115      3334.3885      1665.6115      3334.3885      1665.6115      3334.3885      4.6472372e+09  0.5            7155000        0              0              0              0
Averages over the last 251 of 501 rows, steps 14355000 to 14405000:
Temp Press PotEng Density KinEng TotEng Lx Ly Lz Xlo Xhi Ylo Yhi Zlo Zhi Volume Dt
93067.4 -6.64913 -3.01652e+07 0.150806 277139 -2.98881e+07 1668.78 1668.78 1668.78 1665.61 3334.39 1665.61 3334.39 1665.61 3334.39 4.64724e+09 0.5
Loop time of 8.15292 on 4 procs for 100000 steps with 1000 atoms

unfix 4

fix 5 all npt temp 300 300 $(100.0*dt) iso 1.0 1.0 $(1000.0*dt)
fix 5 all npt temp 300 300 50 iso 1.0 1.0 $(1000.0*dt)
fix 5 all npt temp 300 300 50 iso 1.0 1.0 500

run 300000
Generated 0 of 1 mixed pair_coeff terms from geometric mixing rule
Step          Temp          Press          PotEng        Density         KinEng         TotEng           Lx             Ly             Lz            Xlo            Xhi            Ylo            Yhi            Zlo            Zhi           Volume           Dt            Time           CPU           T/CPU          S/CPU         CPULeft
14405000   1356.2863     -18.886485     -30572004       0.15080619     4038.7889     -30567965       1668.7769      1668.7769      1668.7769      1665.6115      3334.3885      1665.6115      3334.3885      1665.6115      3334.3885      4.6472372e+09  0.5            7205000        0              0              0              0
Averages over the last 751 of 1501 rows, steps 14555000 to 14705000:
Temp Press PotEng Density KinEng TotEng Lx Ly Lz Xlo Xhi Ylo Yhi Zlo Zhi Volume Dt
305.607 1.01554 -3.08207e+07 0.15387 910.044 -3.08198e+07 1657.63 1657.63 1657.63 1671.19 3328.81 1671.19 3328.81 1671.19 3328.81 4.55473e+09 0.5
Loop time of 30.2888 on 4 procs for 300000 steps with 1000 atoms

# run_style
run_style verlet

# write restart
write_restart ./pgnpmf/01000/equpmf21.res
System init for write_restart ...
Generated 0 of 1 mixed pair_coeff terms from geometric mixing rule
