LAMMPS (23 Jun 2022 - Update 1)
# Read restart
read_restart ./pgnpmf/01000/equpmf148.res
Reading restart file ...
  restart file = 23 Jun 2022, LAMMPS = 23 Jun 2022
  restoring atom style atomic from restart
  orthogonal box = (2114.2804 2114.2804 2114.2804) to (2885.7196 2885.7196 2885.7196)
  restoring pair style table from restart
  1000 atoms
  read_restart CPU = 0.005 seconds

# Settings

pair_style table spline 9941

pair_coeff 1 1 ./pgnpmf/N20.txt DE_GNP 75.6
pair_coeff 2 2 ./pgnpmf/N100.txt DE_GNP 115.92
pair_coeff 1 2 ./pgnpmf/mixed_potential.txt DE_GNP 95.66

#Neigh_list Calc Frequency

neigh_modify delay 0 every 1 check yes

# Saving Frequency (50 frames)

variable ts_save equal 5000

# Dump
#dump_modify 1 first no sort id
#dump 2 all cfg 50000 ./equilibration/trajectory/ovito/dumpgen.tens_*.cfg mass type xs ys zs fx fy fz

# thermo_style
thermo_style custom step temp press pe density ke etotal lx ly lz xlo xhi ylo yhi zlo zhi vol dt time cpu tpcpu spcpu cpuremain

# run info
timestep 0.1
thermo 200

# fix

fix 1 all momentum 1000 linear 1 1 1 angular
variable T equal 300
fix 2 all nvt temp 300 370000 100.0

run 100000
Generated 0 of 1 mixed pair_coeff terms from geometric mixing rule
Unused restart file global fix info:
  fix style: npt, fix ID: 5
  update every 1 steps, delay 0 steps, check yes
Step          Temp          Press          PotEng        Density         KinEng         TotEng           Lx             Ly             Lz            Xlo            Xhi            Ylo            Yhi            Zlo            Zhi           Volume           Dt            Time           CPU           T/CPU          S/CPU         CPULeft
103605000   305.85964      1.9600774     -60386979       1.5265421      910.79778     -60386068       771.43927      771.43927      771.43927      2114.2804      2885.7196      2114.2804      2885.7196      2114.2804      2885.7196      4.5909781e+08  0.1            23525000       0              0              0              0
Averages over the last 251 of 501 rows, steps 103655000 to 103705000:
Temp Press PotEng Density KinEng TotEng Lx Ly Lz Xlo Xhi Ylo Yhi Zlo Zhi Volume Dt
276748 349.223 -6.04835e+07 1.52654 824109 -5.96594e+07 771.439 771.439 771.439 2114.28 2885.72 2114.28 2885.72 2114.28 2885.72 4.59098e+08 0.1
Loop time of 16.7245 on 1 procs for 100000 steps with 1000 atoms

unfix 2

fix 3 all nvt temp 370000 370000 $(100.0*dt) #iso 1.0 1.0 $(1000.0*dt)
fix 3 all nvt temp 370000 370000 10

run 200000
Generated 0 of 1 mixed pair_coeff terms from geometric mixing rule
Step          Temp          Press          PotEng        Density         KinEng         TotEng           Lx             Ly             Lz            Xlo            Xhi            Ylo            Yhi            Zlo            Zhi           Volume           Dt            Time           CPU           T/CPU          S/CPU         CPULeft
103705000   372376.46      590.73778     -60468405       1.5265421      1108873.5     -59359531       771.43927      771.43927      771.43927      2114.2804      2885.7196      2114.2804      2885.7196      2114.2804      2885.7196      4.5909781e+08  0.1            23535000       0              0              0              0
Averages over the last 501 of 1001 rows, steps 103805000 to 103905000:
Temp Press PotEng Density KinEng TotEng Lx Ly Lz Xlo Xhi Ylo Yhi Zlo Zhi Volume Dt
370064 1144.83 -6.02318e+07 1.52654 1.10199e+06 -5.91298e+07 771.439 771.439 771.439 2114.28 2885.72 2114.28 2885.72 2114.28 2885.72 4.59098e+08 0.1
Loop time of 33.9027 on 1 procs for 200000 steps with 1000 atoms

unfix 3

fix 4 all nvt temp 370000 300 100.0

run 100000
Generated 0 of 1 mixed pair_coeff terms from geometric mixing rule
Step          Temp          Press          PotEng        Density         KinEng         TotEng           Lx             Ly             Lz            Xlo            Xhi            Ylo            Yhi            Zlo            Zhi           Volume           Dt            Time           CPU           T/CPU          S/CPU         CPULeft
103905000   371541.93      1329.5654     -60019010       1.5265421      1106388.4     -58912622       771.43927      771.43927      771.43927      2114.2804      2885.7196      2114.2804      2885.7196      2114.2804      2885.7196      4.5909781e+08  0.1            23555000       0              0              0              0
Averages over the last 251 of 501 rows, steps 103955000 to 104005000:
Temp Press PotEng Density KinEng TotEng Lx Ly Lz Xlo Xhi Ylo Yhi Zlo Zhi Volume Dt
95977.9 683.696 -6.03272e+07 1.52654 285806 -6.00414e+07 771.439 771.439 771.439 2114.28 2885.72 2114.28 2885.72 2114.28 2885.72 4.59098e+08 0.1
Loop time of 16.8777 on 1 procs for 100000 steps with 1000 atoms

unfix 4

fix 5 all npt temp 300 300 $(100.0*dt) iso 1.0 1.0 $(1000.0*dt)
fix 5 all npt temp 300 300 10 iso 1.0 1.0 $(1000.0*dt)
fix 5 all npt temp 300 300 10 iso 1.0 1.0 100

run 300000
Generated 0 of 1 mixed pair_coeff terms from geometric mixing rule
Step          Temp          Press          PotEng        Density         KinEng         TotEng           Lx             Ly             Lz            Xlo            Xhi            Ylo            Yhi            Zlo            Zhi           Volume           Dt            Time           CPU           T/CPU          S/CPU         CPULeft
104005000   5209.4059      381.22051     -60510352       1.5265421      15512.721     -60494839       771.43927      771.43927      771.43927      2114.2804      2885.7196      2114.2804      2885.7196      2114.2804      2885.7196      4.5909781e+08  0.1            23565000       0              0              0              0
Averages over the last 751 of 1501 rows, steps 104155000 to 104305000:
Temp Press PotEng Density KinEng TotEng Lx Ly Lz Xlo Xhi Ylo Yhi Zlo Zhi Volume Dt
306.993 1.10796 -6.04993e+07 1.52087 914.174 -6.04984e+07 772.397 772.397 772.397 2113.8 2886.2 2113.8 2886.2 2113.8 2886.2 4.60809e+08 0.1
Loop time of 58.2183 on 1 procs for 300000 steps with 1000 atoms

# run_style
run_style verlet

# write restart
write_restart ./pgnpmf/01000/equpmf149.res
System init for write_restart ...
Generated 0 of 1 mixed pair_coeff terms from geometric mixing rule
