LAMMPS (23 Jun 2022 - Update 1)
# Read restart
read_restart ./pgnpmf/01000/equpmf65.res
Reading restart file ...
  restart file = 23 Jun 2022, LAMMPS = 23 Jun 2022
  restoring atom style atomic from restart
  orthogonal box = (1920.9377 1920.9377 1920.9377) to (3079.0623 3079.0623 3079.0623)
  restoring pair style table from restart
  1000 atoms
  read_restart CPU = 0.025 seconds

# Settings

pair_style table spline 9941

pair_coeff 1 1 ./pgnpmf/N20.txt DE_GNP 75.6
pair_coeff 2 2 ./pgnpmf/N100.txt DE_GNP 115.92
pair_coeff 1 2 ./pgnpmf/mixed_potential.txt DE_GNP 95.66

#Neigh_list Calc Frequency

neigh_modify delay 0 every 1 check yes

# Saving Frequency (50 frames)

variable ts_save equal 5000

# Dump
#dump_modify 1 first no sort id
#dump 2 all cfg 50000 ./equilibration/trajectory/ovito/dumpgen.tens_*.cfg mass type xs ys zs fx fy fz

# thermo_style
thermo_style custom step temp press pe density ke etotal lx ly lz xlo xhi ylo yhi zlo zhi vol dt time cpu tpcpu spcpu cpuremain

# run info
timestep 0.1
thermo 200

# fix

fix 1 all momentum 1000 linear 1 1 1 angular
variable T equal 300
fix 2 all nvt temp 300 370000 100.0

run 100000
Generated 0 of 1 mixed pair_coeff terms from geometric mixing rule
Unused restart file global fix info:
  fix style: npt, fix ID: 5
  update every 1 steps, delay 0 steps, check yes
Step          Temp          Press          PotEng        Density         KinEng         TotEng           Lx             Ly             Lz            Xlo            Xhi            Ylo            Yhi            Zlo            Zhi           Volume           Dt            Time           CPU           T/CPU          S/CPU         CPULeft
45505000   308.60612      0.072704312   -43441095       0.45117822     918.97632     -43440176       1158.1246      1158.1246      1158.1246      1920.9377      3079.0623      1920.9377      3079.0623      1920.9377      3079.0623      1.5533376e+09  0.1            17715000       0              0              0              0
Averages over the last 251 of 501 rows, steps 45555000 to 45605000:
Temp Press PotEng Density KinEng TotEng Lx Ly Lz Xlo Xhi Ylo Yhi Zlo Zhi Volume Dt
277569 -3.91021 -4.33523e+07 0.451178 826553 -4.25258e+07 1158.12 1158.12 1158.12 1920.94 3079.06 1920.94 3079.06 1920.94 3079.06 1.55334e+09 0.1
Loop time of 11.2825 on 4 procs for 100000 steps with 1000 atoms

unfix 2

fix 3 all nvt temp 370000 370000 $(100.0*dt) #iso 1.0 1.0 $(1000.0*dt)
fix 3 all nvt temp 370000 370000 10

run 200000
Generated 0 of 1 mixed pair_coeff terms from geometric mixing rule
Step          Temp          Press          PotEng        Density         KinEng         TotEng           Lx             Ly             Lz            Xlo            Xhi            Ylo            Yhi            Zlo            Zhi           Volume           Dt            Time           CPU           T/CPU          S/CPU         CPULeft
45605000   364784.74      54.23885      -43287837       0.45117822     1086266.7     -42201570       1158.1246      1158.1246      1158.1246      1920.9377      3079.0623      1920.9377      3079.0623      1920.9377      3079.0623      1.5533376e+09  0.1            17725000       0              0              0              0
Averages over the last 501 of 1001 rows, steps 45705000 to 45805000:
Temp Press PotEng Density KinEng TotEng Lx Ly Lz Xlo Xhi Ylo Yhi Zlo Zhi Volume Dt
370048 52.4722 -4.28334e+07 0.451178 1.10194e+06 -4.17315e+07 1158.12 1158.12 1158.12 1920.94 3079.06 1920.94 3079.06 1920.94 3079.06 1.55334e+09 0.1
Loop time of 24.031 on 4 procs for 200000 steps with 1000 atoms

unfix 3

fix 4 all nvt temp 370000 300 100.0

run 100000
Generated 0 of 1 mixed pair_coeff terms from geometric mixing rule
Step          Temp          Press          PotEng        Density         KinEng         TotEng           Lx             Ly             Lz            Xlo            Xhi            Ylo            Yhi            Zlo            Zhi           Volume           Dt            Time           CPU           T/CPU          S/CPU         CPULeft
45805000   367399.9      -7.8535756     -42492862       0.45117822     1094054.2     -41398808       1158.1246      1158.1246      1158.1246      1920.9377      3079.0623      1920.9377      3079.0623      1920.9377      3079.0623      1.5533376e+09  0.1            17745000       0              0              0              0
Averages over the last 251 of 501 rows, steps 45855000 to 45905000:
Temp Press PotEng Density KinEng TotEng Lx Ly Lz Xlo Xhi Ylo Yhi Zlo Zhi Volume Dt
95682.9 -154.76 -4.24528e+07 0.451178 284927 -4.21678e+07 1158.12 1158.12 1158.12 1920.94 3079.06 1920.94 3079.06 1920.94 3079.06 1.55334e+09 0.1
Loop time of 11.4622 on 4 procs for 100000 steps with 1000 atoms

unfix 4

fix 5 all npt temp 300 300 $(100.0*dt) iso 1.0 1.0 $(1000.0*dt)
fix 5 all npt temp 300 300 10 iso 1.0 1.0 $(1000.0*dt)
fix 5 all npt temp 300 300 10 iso 1.0 1.0 100

run 300000
Generated 0 of 1 mixed pair_coeff terms from geometric mixing rule
Step          Temp          Press          PotEng        Density         KinEng         TotEng           Lx             Ly             Lz            Xlo            Xhi            Ylo            Yhi            Zlo            Zhi           Volume           Dt            Time           CPU           T/CPU          S/CPU         CPULeft
45905000   5078.0895     -217.28056     -42503988       0.45117822     15121.683     -42488866       1158.1246      1158.1246      1158.1246      1920.9377      3079.0623      1920.9377      3079.0623      1920.9377      3079.0623      1.5533376e+09  0.1            17755000       0              0              0              0
Averages over the last 751 of 1501 rows, steps 46055000 to 46205000:
Temp Press PotEng Density KinEng TotEng Lx Ly Lz Xlo Xhi Ylo Yhi Zlo Zhi Volume Dt
310.456 1.02477 -4.34153e+07 0.466348 924.486 -4.34143e+07 1145.43 1145.43 1145.43 1927.29 3072.71 1927.29 3072.71 1927.29 3072.71 1.50281e+09 0.1
Loop time of 44.5166 on 4 procs for 300000 steps with 1000 atoms

# run_style
run_style verlet

# write restart
write_restart ./pgnpmf/01000/equpmf66.res
System init for write_restart ...
Generated 0 of 1 mixed pair_coeff terms from geometric mixing rule
