LAMMPS (23 Jun 2022 - Update 1)
# Read restart
read_restart ./pgnpmf/01000/equpmf38.res
Reading restart file ...
  restart file = 23 Jun 2022, LAMMPS = 23 Jun 2022
  restoring atom style atomic from restart
  orthogonal box = (1749.579 1749.579 1749.579) to (3250.421 3250.421 3250.421)
  restoring pair style table from restart
  1000 atoms
  read_restart CPU = 0.014 seconds

# Settings

pair_style table spline 9941

pair_coeff 1 1 ./pgnpmf/N20.txt DE_GNP 75.6
pair_coeff 2 2 ./pgnpmf/N100.txt DE_GNP 115.92
pair_coeff 1 2 ./pgnpmf/mixed_potential.txt DE_GNP 95.66

#Neigh_list Calc Frequency

neigh_modify delay 0 every 1 check yes

# Saving Frequency (50 frames)

variable ts_save equal 5000

# Dump
#dump_modify 1 first no sort id
#dump 2 all cfg 50000 ./equilibration/trajectory/ovito/dumpgen.tens_*.cfg mass type xs ys zs fx fy fz

# thermo_style
thermo_style custom step temp press pe density ke etotal lx ly lz xlo xhi ylo yhi zlo zhi vol dt time cpu tpcpu spcpu cpuremain

# run info
timestep 0.5
thermo 200

# fix

fix 1 all momentum 1000 linear 1 1 1 angular
variable T equal 300
fix 2 all nvt temp 300 370000 100.0

run 100000
Generated 0 of 1 mixed pair_coeff terms from geometric mixing rule
Unused restart file global fix info:
  fix style: npt, fix ID: 5
  update every 1 steps, delay 0 steps, check yes
Step          Temp          Press          PotEng        Density         KinEng         TotEng           Lx             Ly             Lz            Xlo            Xhi            Ylo            Yhi            Zlo            Zhi           Volume           Dt            Time           CPU           T/CPU          S/CPU         CPULeft
26605000   307.20713      1.1906866     -36231645       0.20730466     914.81039     -36230730       1500.842       1500.842       1500.842       1749.579       3250.421       1749.579       3250.421       1749.579       3250.421       3.3806867e+09  0.5            13305000       0              0              0              0
Averages over the last 251 of 501 rows, steps 26655000 to 26705000:
Temp Press PotEng Density KinEng TotEng Lx Ly Lz Xlo Xhi Ylo Yhi Zlo Zhi Volume Dt
277556 7.06466 -3.59322e+07 0.207305 826515 -3.51057e+07 1500.84 1500.84 1500.84 1749.58 3250.42 1749.58 3250.42 1749.58 3250.42 3.38069e+09 0.5
Loop time of 9.21579 on 4 procs for 100000 steps with 1000 atoms

unfix 2

fix 3 all nvt temp 370000 370000 $(100.0*dt) #iso 1.0 1.0 $(1000.0*dt)
fix 3 all nvt temp 370000 370000 50

run 200000
Generated 0 of 1 mixed pair_coeff terms from geometric mixing rule
Step          Temp          Press          PotEng        Density         KinEng         TotEng           Lx             Ly             Lz            Xlo            Xhi            Ylo            Yhi            Zlo            Zhi           Volume           Dt            Time           CPU           T/CPU          S/CPU         CPULeft
26705000   380043.93      4.1294744     -35753423       0.20730466     1131705.9     -34621717       1500.842       1500.842       1500.842       1749.579       3250.421       1749.579       3250.421       1749.579       3250.421       3.3806867e+09  0.5            13355000       0              0              0              0
Averages over the last 501 of 1001 rows, steps 26805000 to 26905000:
Temp Press PotEng Density KinEng TotEng Lx Ly Lz Xlo Xhi Ylo Yhi Zlo Zhi Volume Dt
369970 12.8915 -3.58764e+07 0.207305 1.10171e+06 -3.47747e+07 1500.84 1500.84 1500.84 1749.58 3250.42 1749.58 3250.42 1749.58 3250.42 3.38069e+09 0.5
Loop time of 18.4079 on 4 procs for 200000 steps with 1000 atoms

unfix 3

fix 4 all nvt temp 370000 300 100.0

run 100000
Generated 0 of 1 mixed pair_coeff terms from geometric mixing rule
Step          Temp          Press          PotEng        Density         KinEng         TotEng           Lx             Ly             Lz            Xlo            Xhi            Ylo            Yhi            Zlo            Zhi           Volume           Dt            Time           CPU           T/CPU          S/CPU         CPULeft
26905000   365723.56      16.568429     -35988259       0.20730466     1089062.3     -34899197       1500.842       1500.842       1500.842       1749.579       3250.421       1749.579       3250.421       1749.579       3250.421       3.3806867e+09  0.5            13455000       0              0              0              0
Averages over the last 251 of 501 rows, steps 26955000 to 27005000:
Temp Press PotEng Density KinEng TotEng Lx Ly Lz Xlo Xhi Ylo Yhi Zlo Zhi Volume Dt
93025.6 -6.39688 -3.62606e+07 0.207305 277014 -3.59836e+07 1500.84 1500.84 1500.84 1749.58 3250.42 1749.58 3250.42 1749.58 3250.42 3.38069e+09 0.5
Loop time of 9.14265 on 4 procs for 100000 steps with 1000 atoms

unfix 4

fix 5 all npt temp 300 300 $(100.0*dt) iso 1.0 1.0 $(1000.0*dt)
fix 5 all npt temp 300 300 50 iso 1.0 1.0 $(1000.0*dt)
fix 5 all npt temp 300 300 50 iso 1.0 1.0 500

run 300000
Generated 0 of 1 mixed pair_coeff terms from geometric mixing rule
Step          Temp          Press          PotEng        Density         KinEng         TotEng           Lx             Ly             Lz            Xlo            Xhi            Ylo            Yhi            Zlo            Zhi           Volume           Dt            Time           CPU           T/CPU          S/CPU         CPULeft
27005000   1359.2871     -18.23187      -36474735       0.20730466     4047.7249     -36470688       1500.842       1500.842       1500.842       1749.579       3250.421       1749.579       3250.421       1749.579       3250.421       3.3806867e+09  0.5            13505000       0              0              0              0
Averages over the last 751 of 1501 rows, steps 27155000 to 27305000:
Temp Press PotEng Density KinEng TotEng Lx Ly Lz Xlo Xhi Ylo Yhi Zlo Zhi Volume Dt
305.588 1.01301 -3.68419e+07 0.209563 909.988 -3.6841e+07 1495.43 1495.43 1495.43 1752.28 3247.72 1752.28 3247.72 1752.28 3247.72 3.34425e+09 0.5
Loop time of 34.0739 on 4 procs for 300000 steps with 1000 atoms

# run_style
run_style verlet

# write restart
write_restart ./pgnpmf/01000/equpmf39.res
System init for write_restart ...
Generated 0 of 1 mixed pair_coeff terms from geometric mixing rule
