LAMMPS (23 Jun 2022 - Update 1)
# Read restart
read_restart ./pgnpmf/01000/equpmf96.res
Reading restart file ...
  restart file = 23 Jun 2022, LAMMPS = 23 Jun 2022
  restoring atom style atomic from restart
  orthogonal box = (2042.0052 2042.0052 2042.0052) to (2957.9948 2957.9948 2957.9948)
  restoring pair style table from restart
  1000 atoms
  read_restart CPU = 0.003 seconds

# Settings

pair_style table spline 9941

pair_coeff 1 1 ./pgnpmf/N20.txt DE_GNP 75.6
pair_coeff 2 2 ./pgnpmf/N100.txt DE_GNP 115.92
pair_coeff 1 2 ./pgnpmf/mixed_potential.txt DE_GNP 95.66

#Neigh_list Calc Frequency

neigh_modify delay 0 every 1 check yes

# Saving Frequency (50 frames)

variable ts_save equal 5000

# Dump
#dump_modify 1 first no sort id
#dump 2 all cfg 50000 ./equilibration/trajectory/ovito/dumpgen.tens_*.cfg mass type xs ys zs fx fy fz

# thermo_style
thermo_style custom step temp press pe density ke etotal lx ly lz xlo xhi ylo yhi zlo zhi vol dt time cpu tpcpu spcpu cpuremain

# run info
timestep 0.1
thermo 200

# fix

fix 1 all momentum 1000 linear 1 1 1 angular
variable T equal 300
fix 2 all nvt temp 300 370000 100.0

run 100000
Generated 0 of 1 mixed pair_coeff terms from geometric mixing rule
Unused restart file global fix info:
  fix style: npt, fix ID: 5
  update every 1 steps, delay 0 steps, check yes
Step          Temp          Press          PotEng        Density         KinEng         TotEng           Lx             Ly             Lz            Xlo            Xhi            Ylo            Yhi            Zlo            Zhi           Volume           Dt            Time           CPU           T/CPU          S/CPU         CPULeft
67205000   307.57733      5.5233209     -51759894       0.91189009     915.91277     -51758978       915.98951      915.98951      915.98951      2042.0052      2957.9948      2042.0052      2957.9948      2042.0052      2957.9948      7.6854888e+08  0.1            19885000       0              0              0              0
Averages over the last 251 of 501 rows, steps 67255000 to 67305000:
Temp Press PotEng Density KinEng TotEng Lx Ly Lz Xlo Xhi Ylo Yhi Zlo Zhi Volume Dt
277666 10.9854 -5.14893e+07 0.91189 826842 -5.06625e+07 915.99 915.99 915.99 2042.01 2957.99 2042.01 2957.99 2042.01 2957.99 7.68549e+08 0.1
Loop time of 15.8281 on 1 procs for 100000 steps with 1000 atoms

unfix 2

fix 3 all nvt temp 370000 370000 $(100.0*dt) #iso 1.0 1.0 $(1000.0*dt)
fix 3 all nvt temp 370000 370000 10

run 200000
Generated 0 of 1 mixed pair_coeff terms from geometric mixing rule
Step          Temp          Press          PotEng        Density         KinEng         TotEng           Lx             Ly             Lz            Xlo            Xhi            Ylo            Yhi            Zlo            Zhi           Volume           Dt            Time           CPU           T/CPU          S/CPU         CPULeft
67305000   371755.44      71.646754     -51407680       0.91189009     1107024.2     -50300656       915.98951      915.98951      915.98951      2042.0052      2957.9948      2042.0052      2957.9948      2042.0052      2957.9948      7.6854888e+08  0.1            19895000       0              0              0              0
Averages over the last 501 of 1001 rows, steps 67405000 to 67505000:
Temp Press PotEng Density KinEng TotEng Lx Ly Lz Xlo Xhi Ylo Yhi Zlo Zhi Volume Dt
369934 143.191 -5.11525e+07 0.91189 1.1016e+06 -5.00509e+07 915.99 915.99 915.99 2042.01 2957.99 2042.01 2957.99 2042.01 2957.99 7.68549e+08 0.1
Loop time of 30.5696 on 1 procs for 200000 steps with 1000 atoms

unfix 3

fix 4 all nvt temp 370000 300 100.0

run 100000
Generated 0 of 1 mixed pair_coeff terms from geometric mixing rule
Step          Temp          Press          PotEng        Density         KinEng         TotEng           Lx             Ly             Lz            Xlo            Xhi            Ylo            Yhi            Zlo            Zhi           Volume           Dt            Time           CPU           T/CPU          S/CPU         CPULeft
67505000   372896.59      142.49856     -50890977       0.91189009     1110422.4     -49780554       915.98951      915.98951      915.98951      2042.0052      2957.9948      2042.0052      2957.9948      2042.0052      2957.9948      7.6854888e+08  0.1            19915000       0              0              0              0
Averages over the last 251 of 501 rows, steps 67555000 to 67605000:
Temp Press PotEng Density KinEng TotEng Lx Ly Lz Xlo Xhi Ylo Yhi Zlo Zhi Volume Dt
95305 -222.091 -5.09775e+07 0.91189 283802 -5.06937e+07 915.99 915.99 915.99 2042.01 2957.99 2042.01 2957.99 2042.01 2957.99 7.68549e+08 0.1
Loop time of 15.2784 on 1 procs for 100000 steps with 1000 atoms

unfix 4

fix 5 all npt temp 300 300 $(100.0*dt) iso 1.0 1.0 $(1000.0*dt)
fix 5 all npt temp 300 300 10 iso 1.0 1.0 $(1000.0*dt)
fix 5 all npt temp 300 300 10 iso 1.0 1.0 100

run 300000
Generated 0 of 1 mixed pair_coeff terms from geometric mixing rule
Step          Temp          Press          PotEng        Density         KinEng         TotEng           Lx             Ly             Lz            Xlo            Xhi            Ylo            Yhi            Zlo            Zhi           Volume           Dt            Time           CPU           T/CPU          S/CPU         CPULeft
67605000   5074.3815     -370.16531     -51075039       0.91189009     15110.642     -51059928       915.98951      915.98951      915.98951      2042.0052      2957.9948      2042.0052      2957.9948      2042.0052      2957.9948      7.6854888e+08  0.1            19925000       0              0              0              0
Averages over the last 751 of 1501 rows, steps 67755000 to 67905000:
Temp Press PotEng Density KinEng TotEng Lx Ly Lz Xlo Xhi Ylo Yhi Zlo Zhi Volume Dt
309.214 1.06173 -5.18277e+07 0.932823 920.787 -5.18268e+07 909.086 909.086 909.086 2045.46 2954.54 2045.46 2954.54 2045.46 2954.54 7.51303e+08 0.1
Loop time of 54.1254 on 1 procs for 300000 steps with 1000 atoms

# run_style
run_style verlet

# write restart
write_restart ./pgnpmf/01000/equpmf97.res
System init for write_restart ...
Generated 0 of 1 mixed pair_coeff terms from geometric mixing rule
