LAMMPS (23 Jun 2022 - Update 1)
# Read restart
read_restart ./pgnpmf/01000/equpmf95.res
Reading restart file ...
  restart file = 23 Jun 2022, LAMMPS = 23 Jun 2022
  restoring atom style atomic from restart
  orthogonal box = (2039.0201 2039.0201 2039.0201) to (2960.9799 2960.9799 2960.9799)
  restoring pair style table from restart
  1000 atoms
  read_restart CPU = 0.005 seconds

# Settings

pair_style table spline 9941

pair_coeff 1 1 ./pgnpmf/N20.txt DE_GNP 75.6
pair_coeff 2 2 ./pgnpmf/N100.txt DE_GNP 115.92
pair_coeff 1 2 ./pgnpmf/mixed_potential.txt DE_GNP 95.66

#Neigh_list Calc Frequency

neigh_modify delay 0 every 1 check yes

# Saving Frequency (50 frames)

variable ts_save equal 5000

# Dump
#dump_modify 1 first no sort id
#dump 2 all cfg 50000 ./equilibration/trajectory/ovito/dumpgen.tens_*.cfg mass type xs ys zs fx fy fz

# thermo_style
thermo_style custom step temp press pe density ke etotal lx ly lz xlo xhi ylo yhi zlo zhi vol dt time cpu tpcpu spcpu cpuremain

# run info
timestep 0.1
thermo 200

# fix

fix 1 all momentum 1000 linear 1 1 1 angular
variable T equal 300
fix 2 all nvt temp 300 370000 100.0

run 100000
Generated 0 of 1 mixed pair_coeff terms from geometric mixing rule
Unused restart file global fix info:
  fix style: npt, fix ID: 5
  update every 1 steps, delay 0 steps, check yes
Step          Temp          Press          PotEng        Density         KinEng         TotEng           Lx             Ly             Lz            Xlo            Xhi            Ylo            Yhi            Zlo            Zhi           Volume           Dt            Time           CPU           T/CPU          S/CPU         CPULeft
66505000   307.44217      1.9179354     -51380344       0.89428939     915.51028     -51379429       921.95977      921.95977      921.95977      2039.0201      2960.9799      2039.0201      2960.9799      2039.0201      2960.9799      7.8367486e+08  0.1            19815000       0              0              0              0
Averages over the last 251 of 501 rows, steps 66555000 to 66605000:
Temp Press PotEng Density KinEng TotEng Lx Ly Lz Xlo Xhi Ylo Yhi Zlo Zhi Volume Dt
276146 34.3018 -5.13389e+07 0.894289 822315 -5.05166e+07 921.96 921.96 921.96 2039.02 2960.98 2039.02 2960.98 2039.02 2960.98 7.83675e+08 0.1
Loop time of 17.426 on 1 procs for 100000 steps with 1000 atoms

unfix 2

fix 3 all nvt temp 370000 370000 $(100.0*dt) #iso 1.0 1.0 $(1000.0*dt)
fix 3 all nvt temp 370000 370000 10

run 200000
Generated 0 of 1 mixed pair_coeff terms from geometric mixing rule
Step          Temp          Press          PotEng        Density         KinEng         TotEng           Lx             Ly             Lz            Xlo            Xhi            Ylo            Yhi            Zlo            Zhi           Volume           Dt            Time           CPU           T/CPU          S/CPU         CPULeft
66605000   363788.92      136.81419     -51303951       0.89428939     1083301.3     -50220650       921.95977      921.95977      921.95977      2039.0201      2960.9799      2039.0201      2960.9799      2039.0201      2960.9799      7.8367486e+08  0.1            19825000       0              0              0              0
Averages over the last 501 of 1001 rows, steps 66705000 to 66805000:
Temp Press PotEng Density KinEng TotEng Lx Ly Lz Xlo Xhi Ylo Yhi Zlo Zhi Volume Dt
370070 65.1888 -5.10723e+07 0.894289 1.10201e+06 -4.99703e+07 921.96 921.96 921.96 2039.02 2960.98 2039.02 2960.98 2039.02 2960.98 7.83675e+08 0.1
Loop time of 34.9724 on 1 procs for 200000 steps with 1000 atoms

unfix 3

fix 4 all nvt temp 370000 300 100.0

run 100000
Generated 0 of 1 mixed pair_coeff terms from geometric mixing rule
Step          Temp          Press          PotEng        Density         KinEng         TotEng           Lx             Ly             Lz            Xlo            Xhi            Ylo            Yhi            Zlo            Zhi           Volume           Dt            Time           CPU           T/CPU          S/CPU         CPULeft
66805000   377074.27      138.69585     -50933026       0.89428939     1122862.8     -49810163       921.95977      921.95977      921.95977      2039.0201      2960.9799      2039.0201      2960.9799      2039.0201      2960.9799      7.8367486e+08  0.1            19845000       0              0              0              0
Averages over the last 251 of 501 rows, steps 66855000 to 66905000:
Temp Press PotEng Density KinEng TotEng Lx Ly Lz Xlo Xhi Ylo Yhi Zlo Zhi Volume Dt
96012.2 -155.21 -5.08755e+07 0.894289 285908 -5.05896e+07 921.96 921.96 921.96 2039.02 2960.98 2039.02 2960.98 2039.02 2960.98 7.83675e+08 0.1
Loop time of 17.4937 on 1 procs for 100000 steps with 1000 atoms

unfix 4

fix 5 all npt temp 300 300 $(100.0*dt) iso 1.0 1.0 $(1000.0*dt)
fix 5 all npt temp 300 300 10 iso 1.0 1.0 $(1000.0*dt)
fix 5 all npt temp 300 300 10 iso 1.0 1.0 100

run 300000
Generated 0 of 1 mixed pair_coeff terms from geometric mixing rule
Step          Temp          Press          PotEng        Density         KinEng         TotEng           Lx             Ly             Lz            Xlo            Xhi            Ylo            Yhi            Zlo            Zhi           Volume           Dt            Time           CPU           T/CPU          S/CPU         CPULeft
66905000   5103.5125     -292.45428     -51002339       0.89428939     15197.389     -50987142       921.95977      921.95977      921.95977      2039.0201      2960.9799      2039.0201      2960.9799      2039.0201      2960.9799      7.8367486e+08  0.1            19855000       0              0              0              0
Averages over the last 751 of 1501 rows, steps 67055000 to 67205000:
Temp Press PotEng Density KinEng TotEng Lx Ly Lz Xlo Xhi Ylo Yhi Zlo Zhi Volume Dt
308.798 0.906958 -5.16494e+07 0.910429 919.548 -5.16485e+07 916.48 916.48 916.48 2041.76 2958.24 2041.76 2958.24 2041.76 2958.24 7.69783e+08 0.1
Loop time of 59.3278 on 1 procs for 300000 steps with 1000 atoms

# run_style
run_style verlet

# write restart
write_restart ./pgnpmf/01000/equpmf96.res
System init for write_restart ...
Generated 0 of 1 mixed pair_coeff terms from geometric mixing rule
