LAMMPS (23 Jun 2022 - Update 1)
# Read restart
read_restart ./pgnpmf/01000/equpmf112.res
Reading restart file ...
  restart file = 23 Jun 2022, LAMMPS = 23 Jun 2022
  restoring atom style atomic from restart
  orthogonal box = (2091.9542 2091.9542 2091.9542) to (2908.0458 2908.0458 2908.0458)
  restoring pair style table from restart
  1000 atoms
  read_restart CPU = 0.006 seconds

# Settings

pair_style table spline 9941

pair_coeff 1 1 ./pgnpmf/N20.txt DE_GNP 75.6
pair_coeff 2 2 ./pgnpmf/N100.txt DE_GNP 115.92
pair_coeff 1 2 ./pgnpmf/mixed_potential.txt DE_GNP 95.66

#Neigh_list Calc Frequency

neigh_modify delay 0 every 1 check yes

# Saving Frequency (50 frames)

variable ts_save equal 5000

# Dump
#dump_modify 1 first no sort id
#dump 2 all cfg 50000 ./equilibration/trajectory/ovito/dumpgen.tens_*.cfg mass type xs ys zs fx fy fz

# thermo_style
thermo_style custom step temp press pe density ke etotal lx ly lz xlo xhi ylo yhi zlo zhi vol dt time cpu tpcpu spcpu cpuremain

# run info
timestep 0.1
thermo 200

# fix

fix 1 all momentum 1000 linear 1 1 1 angular
variable T equal 300
fix 2 all nvt temp 300 370000 100.0

run 100000
Generated 0 of 1 mixed pair_coeff terms from geometric mixing rule
Unused restart file global fix info:
  fix style: npt, fix ID: 5
  update every 1 steps, delay 0 steps, check yes
Step          Temp          Press          PotEng        Density         KinEng         TotEng           Lx             Ly             Lz            Xlo            Xhi            Ylo            Yhi            Zlo            Zhi           Volume           Dt            Time           CPU           T/CPU          S/CPU         CPULeft
78405000   306.89768      1.4611865     -57177855       1.2894288      913.88888     -57176941       816.09154      816.09154      816.09154      2091.9542      2908.0458      2091.9542      2908.0458      2091.9542      2908.0458      5.4352137e+08  0.1            21005000       0              0              0              0
Averages over the last 251 of 501 rows, steps 78455000 to 78505000:
Temp Press PotEng Density KinEng TotEng Lx Ly Lz Xlo Xhi Ylo Yhi Zlo Zhi Volume Dt
277470 470.988 -5.74156e+07 1.28943 826260 -5.65894e+07 816.092 816.092 816.092 2091.95 2908.05 2091.95 2908.05 2091.95 2908.05 5.43521e+08 0.1
Loop time of 13.1308 on 1 procs for 100000 steps with 1000 atoms

unfix 2

fix 3 all nvt temp 370000 370000 $(100.0*dt) #iso 1.0 1.0 $(1000.0*dt)
fix 3 all nvt temp 370000 370000 10

run 200000
Generated 0 of 1 mixed pair_coeff terms from geometric mixing rule
Step          Temp          Press          PotEng        Density         KinEng         TotEng           Lx             Ly             Lz            Xlo            Xhi            Ylo            Yhi            Zlo            Zhi           Volume           Dt            Time           CPU           T/CPU          S/CPU         CPULeft
78505000   367299.11      863.15142     -57592393       1.2894288      1093754       -56498639       816.09154      816.09154      816.09154      2091.9542      2908.0458      2091.9542      2908.0458      2091.9542      2908.0458      5.4352137e+08  0.1            21015000       0              0              0              0
Averages over the last 501 of 1001 rows, steps 78605000 to 78705000:
Temp Press PotEng Density KinEng TotEng Lx Ly Lz Xlo Xhi Ylo Yhi Zlo Zhi Volume Dt
369984 895.04 -5.71923e+07 1.28943 1.10175e+06 -5.60906e+07 816.092 816.092 816.092 2091.95 2908.05 2091.95 2908.05 2091.95 2908.05 5.43521e+08 0.1
Loop time of 26.9315 on 1 procs for 200000 steps with 1000 atoms

unfix 3

fix 4 all nvt temp 370000 300 100.0

run 100000
Generated 0 of 1 mixed pair_coeff terms from geometric mixing rule
Step          Temp          Press          PotEng        Density         KinEng         TotEng           Lx             Ly             Lz            Xlo            Xhi            Ylo            Yhi            Zlo            Zhi           Volume           Dt            Time           CPU           T/CPU          S/CPU         CPULeft
78705000   360596.52      615.57446     -56899284       1.2894288      1073794.9     -55825489       816.09154      816.09154      816.09154      2091.9542      2908.0458      2091.9542      2908.0458      2091.9542      2908.0458      5.4352137e+08  0.1            21035000       0              0              0              0
Averages over the last 251 of 501 rows, steps 78755000 to 78805000:
Temp Press PotEng Density KinEng TotEng Lx Ly Lz Xlo Xhi Ylo Yhi Zlo Zhi Volume Dt
96319 -111.105 -5.68754e+07 1.28943 286821 -5.65886e+07 816.092 816.092 816.092 2091.95 2908.05 2091.95 2908.05 2091.95 2908.05 5.43521e+08 0.1
Loop time of 13.4484 on 1 procs for 100000 steps with 1000 atoms

unfix 4

fix 5 all npt temp 300 300 $(100.0*dt) iso 1.0 1.0 $(1000.0*dt)
fix 5 all npt temp 300 300 10 iso 1.0 1.0 $(1000.0*dt)
fix 5 all npt temp 300 300 10 iso 1.0 1.0 100

run 300000
Generated 0 of 1 mixed pair_coeff terms from geometric mixing rule
Step          Temp          Press          PotEng        Density         KinEng         TotEng           Lx             Ly             Lz            Xlo            Xhi            Ylo            Yhi            Zlo            Zhi           Volume           Dt            Time           CPU           T/CPU          S/CPU         CPULeft
78805000   5124.9174     -350.6439      -56952627       1.2894288      15261.129     -56937365       816.09154      816.09154      816.09154      2091.9542      2908.0458      2091.9542      2908.0458      2091.9542      2908.0458      5.4352137e+08  0.1            21045000       0              0              0              0
Averages over the last 751 of 1501 rows, steps 78955000 to 79105000:
Temp Press PotEng Density KinEng TotEng Lx Ly Lz Xlo Xhi Ylo Yhi Zlo Zhi Volume Dt
307.841 1.02278 -5.74572e+07 1.30757 916.697 -5.74563e+07 812.3 812.3 812.3 2093.85 2906.15 2093.85 2906.15 2093.85 2906.15 5.35982e+08 0.1
Loop time of 46.2942 on 1 procs for 300000 steps with 1000 atoms

# run_style
run_style verlet

# write restart
write_restart ./pgnpmf/01000/equpmf113.res
System init for write_restart ...
Generated 0 of 1 mixed pair_coeff terms from geometric mixing rule
