LAMMPS (23 Jun 2022 - Update 1)
# Read restart
read_restart ./pgnpmf/01000/equpmf39.res
Reading restart file ...
  restart file = 23 Jun 2022, LAMMPS = 23 Jun 2022
  restoring atom style atomic from restart
  orthogonal box = (1752.6982 1752.6982 1752.6982) to (3247.3018 3247.3018 3247.3018)
  restoring pair style table from restart
  1000 atoms
  read_restart CPU = 0.019 seconds

# Settings

pair_style table spline 9941

pair_coeff 1 1 ./pgnpmf/N20.txt DE_GNP 75.6
pair_coeff 2 2 ./pgnpmf/N100.txt DE_GNP 115.92
pair_coeff 1 2 ./pgnpmf/mixed_potential.txt DE_GNP 95.66

#Neigh_list Calc Frequency

neigh_modify delay 0 every 1 check yes

# Saving Frequency (50 frames)

variable ts_save equal 5000

# Dump
#dump_modify 1 first no sort id
#dump 2 all cfg 50000 ./equilibration/trajectory/ovito/dumpgen.tens_*.cfg mass type xs ys zs fx fy fz

# thermo_style
thermo_style custom step temp press pe density ke etotal lx ly lz xlo xhi ylo yhi zlo zhi vol dt time cpu tpcpu spcpu cpuremain

# run info
timestep 0.5
thermo 200

# fix

fix 1 all momentum 1000 linear 1 1 1 angular
variable T equal 300
fix 2 all nvt temp 300 370000 100.0

run 100000
Generated 0 of 1 mixed pair_coeff terms from geometric mixing rule
Unused restart file global fix info:
  fix style: npt, fix ID: 5
  update every 1 steps, delay 0 steps, check yes
Step          Temp          Press          PotEng        Density         KinEng         TotEng           Lx             Ly             Lz            Xlo            Xhi            Ylo            Yhi            Zlo            Zhi           Volume           Dt            Time           CPU           T/CPU          S/CPU         CPULeft
27305000   305.16122      0.82656046    -36877018       0.20991135     908.71801     -36876109       1494.6036      1494.6036      1494.6036      1752.6982      3247.3018      1752.6982      3247.3018      1752.6982      3247.3018      3.3387052e+09  0.5            13655000       0              0              0              0
Averages over the last 251 of 501 rows, steps 27355000 to 27405000:
Temp Press PotEng Density KinEng TotEng Lx Ly Lz Xlo Xhi Ylo Yhi Zlo Zhi Volume Dt
277113 8.65164 -3.62645e+07 0.209911 825195 -3.54393e+07 1494.6 1494.6 1494.6 1752.7 3247.3 1752.7 3247.3 1752.7 3247.3 3.33871e+09 0.5
Loop time of 9.2593 on 4 procs for 100000 steps with 1000 atoms

unfix 2

fix 3 all nvt temp 370000 370000 $(100.0*dt) #iso 1.0 1.0 $(1000.0*dt)
fix 3 all nvt temp 370000 370000 50

run 200000
Generated 0 of 1 mixed pair_coeff terms from geometric mixing rule
Step          Temp          Press          PotEng        Density         KinEng         TotEng           Lx             Ly             Lz            Xlo            Xhi            Ylo            Yhi            Zlo            Zhi           Volume           Dt            Time           CPU           T/CPU          S/CPU         CPULeft
27405000   371514.33      8.2631889     -36362517       0.20991135     1106306.2     -35256211       1494.6036      1494.6036      1494.6036      1752.6982      3247.3018      1752.6982      3247.3018      1752.6982      3247.3018      3.3387052e+09  0.5            13705000       0              0              0              0
Averages over the last 501 of 1001 rows, steps 27505000 to 27605000:
Temp Press PotEng Density KinEng TotEng Lx Ly Lz Xlo Xhi Ylo Yhi Zlo Zhi Volume Dt
369742 13.5375 -3.6615e+07 0.209911 1.10103e+06 -3.55139e+07 1494.6 1494.6 1494.6 1752.7 3247.3 1752.7 3247.3 1752.7 3247.3 3.33871e+09 0.5
Loop time of 18.6866 on 4 procs for 200000 steps with 1000 atoms

unfix 3

fix 4 all nvt temp 370000 300 100.0

run 100000
Generated 0 of 1 mixed pair_coeff terms from geometric mixing rule
Step          Temp          Press          PotEng        Density         KinEng         TotEng           Lx             Ly             Lz            Xlo            Xhi            Ylo            Yhi            Zlo            Zhi           Volume           Dt            Time           CPU           T/CPU          S/CPU         CPULeft
27605000   369785.4       7.2090622     -36476385       0.20991135     1101157.8     -35375227       1494.6036      1494.6036      1494.6036      1752.6982      3247.3018      1752.6982      3247.3018      1752.6982      3247.3018      3.3387052e+09  0.5            13805000       0              0              0              0
Averages over the last 251 of 501 rows, steps 27655000 to 27705000:
Temp Press PotEng Density KinEng TotEng Lx Ly Lz Xlo Xhi Ylo Yhi Zlo Zhi Volume Dt
92789.8 -2.99836 -3.68753e+07 0.209911 276312 -3.6599e+07 1494.6 1494.6 1494.6 1752.7 3247.3 1752.7 3247.3 1752.7 3247.3 3.33871e+09 0.5
Loop time of 9.30199 on 4 procs for 100000 steps with 1000 atoms

unfix 4

fix 5 all npt temp 300 300 $(100.0*dt) iso 1.0 1.0 $(1000.0*dt)
fix 5 all npt temp 300 300 50 iso 1.0 1.0 $(1000.0*dt)
fix 5 all npt temp 300 300 50 iso 1.0 1.0 500

run 300000
Generated 0 of 1 mixed pair_coeff terms from geometric mixing rule
Step          Temp          Press          PotEng        Density         KinEng         TotEng           Lx             Ly             Lz            Xlo            Xhi            Ylo            Yhi            Zlo            Zhi           Volume           Dt            Time           CPU           T/CPU          S/CPU         CPULeft
27705000   1318.0097     -12.411634     -36864923       0.20991135     3924.8077     -36860998       1494.6036      1494.6036      1494.6036      1752.6982      3247.3018      1752.6982      3247.3018      1752.6982      3247.3018      3.3387052e+09  0.5            13855000       0              0              0              0
Averages over the last 751 of 1501 rows, steps 27855000 to 28005000:
Temp Press PotEng Density KinEng TotEng Lx Ly Lz Xlo Xhi Ylo Yhi Zlo Zhi Volume Dt
303.108 1.00883 -3.70868e+07 0.211652 902.603 -3.70859e+07 1490.5 1490.5 1490.5 1754.75 3245.25 1754.75 3245.25 1754.75 3245.25 3.31126e+09 0.5
Loop time of 34.1645 on 4 procs for 300000 steps with 1000 atoms

# run_style
run_style verlet

# write restart
write_restart ./pgnpmf/01000/equpmf40.res
System init for write_restart ...
Generated 0 of 1 mixed pair_coeff terms from geometric mixing rule
