LAMMPS (23 Jun 2022 - Update 1)
# Read restart
read_restart ./pgnpmf/01000/equpmf87.res
Reading restart file ...
  restart file = 23 Jun 2022, LAMMPS = 23 Jun 2022
  restoring atom style atomic from restart
  orthogonal box = (2011.8447 2011.8447 2011.8447) to (2988.1553 2988.1553 2988.1553)
  restoring pair style table from restart
  1000 atoms
  read_restart CPU = 0.006 seconds

# Settings

pair_style table spline 9941

pair_coeff 1 1 ./pgnpmf/N20.txt DE_GNP 75.6
pair_coeff 2 2 ./pgnpmf/N100.txt DE_GNP 115.92
pair_coeff 1 2 ./pgnpmf/mixed_potential.txt DE_GNP 95.66

#Neigh_list Calc Frequency

neigh_modify delay 0 every 1 check yes

# Saving Frequency (50 frames)

variable ts_save equal 5000

# Dump
#dump_modify 1 first no sort id
#dump 2 all cfg 50000 ./equilibration/trajectory/ovito/dumpgen.tens_*.cfg mass type xs ys zs fx fy fz

# thermo_style
thermo_style custom step temp press pe density ke etotal lx ly lz xlo xhi ylo yhi zlo zhi vol dt time cpu tpcpu spcpu cpuremain

# run info
timestep 0.1
thermo 200

# fix

fix 1 all momentum 1000 linear 1 1 1 angular
variable T equal 300
fix 2 all nvt temp 300 370000 100.0

run 100000
Generated 0 of 1 mixed pair_coeff terms from geometric mixing rule
Unused restart file global fix info:
  fix style: npt, fix ID: 5
  update every 1 steps, delay 0 steps, check yes
Step          Temp          Press          PotEng        Density         KinEng         TotEng           Lx             Ly             Lz            Xlo            Xhi            Ylo            Yhi            Zlo            Zhi           Volume           Dt            Time           CPU           T/CPU          S/CPU         CPULeft
60905000   308.02893      0.21362575    -49393558       0.75309555     917.25756     -49392640       976.31052      976.31052      976.31052      2011.8447      2988.1553      2011.8447      2988.1553      2011.8447      2988.1553      9.3060185e+08  0.1            19255000       0              0              0              0
Averages over the last 251 of 501 rows, steps 60955000 to 61005000:
Temp Press PotEng Density KinEng TotEng Lx Ly Lz Xlo Xhi Ylo Yhi Zlo Zhi Volume Dt
277775 -17.9448 -4.92329e+07 0.753096 827166 -4.84057e+07 976.311 976.311 976.311 2011.84 2988.16 2011.84 2988.16 2011.84 2988.16 9.30602e+08 0.1
Loop time of 14.5786 on 1 procs for 100000 steps with 1000 atoms

unfix 2

fix 3 all nvt temp 370000 370000 $(100.0*dt) #iso 1.0 1.0 $(1000.0*dt)
fix 3 all nvt temp 370000 370000 10

run 200000
Generated 0 of 1 mixed pair_coeff terms from geometric mixing rule
Step          Temp          Press          PotEng        Density         KinEng         TotEng           Lx             Ly             Lz            Xlo            Xhi            Ylo            Yhi            Zlo            Zhi           Volume           Dt            Time           CPU           T/CPU          S/CPU         CPULeft
61005000   376268.06      71.462674     -49221373       0.75309555     1120462       -48100911       976.31052      976.31052      976.31052      2011.8447      2988.1553      2011.8447      2988.1553      2011.8447      2988.1553      9.3060185e+08  0.1            19265000       0              0              0              0
Averages over the last 501 of 1001 rows, steps 61105000 to 61205000:
Temp Press PotEng Density KinEng TotEng Lx Ly Lz Xlo Xhi Ylo Yhi Zlo Zhi Volume Dt
370026 81.1988 -4.89585e+07 0.753096 1.10187e+06 -4.78566e+07 976.311 976.311 976.311 2011.84 2988.16 2011.84 2988.16 2011.84 2988.16 9.30602e+08 0.1
Loop time of 29.0817 on 1 procs for 200000 steps with 1000 atoms

unfix 3

fix 4 all nvt temp 370000 300 100.0

run 100000
Generated 0 of 1 mixed pair_coeff terms from geometric mixing rule
Step          Temp          Press          PotEng        Density         KinEng         TotEng           Lx             Ly             Lz            Xlo            Xhi            Ylo            Yhi            Zlo            Zhi           Volume           Dt            Time           CPU           T/CPU          S/CPU         CPULeft
61205000   370072.32      193.02542     -49046187       0.75309555     1102012.2     -47944175       976.31052      976.31052      976.31052      2011.8447      2988.1553      2011.8447      2988.1553      2011.8447      2988.1553      9.3060185e+08  0.1            19285000       0              0              0              0
Averages over the last 251 of 501 rows, steps 61255000 to 61305000:
Temp Press PotEng Density KinEng TotEng Lx Ly Lz Xlo Xhi Ylo Yhi Zlo Zhi Volume Dt
95444.7 -61.8894 -4.89095e+07 0.753096 284218 -4.86253e+07 976.311 976.311 976.311 2011.84 2988.16 2011.84 2988.16 2011.84 2988.16 9.30602e+08 0.1
Loop time of 14.6458 on 1 procs for 100000 steps with 1000 atoms

unfix 4

fix 5 all npt temp 300 300 $(100.0*dt) iso 1.0 1.0 $(1000.0*dt)
fix 5 all npt temp 300 300 10 iso 1.0 1.0 $(1000.0*dt)
fix 5 all npt temp 300 300 10 iso 1.0 1.0 100

run 300000
Generated 0 of 1 mixed pair_coeff terms from geometric mixing rule
Step          Temp          Press          PotEng        Density         KinEng         TotEng           Lx             Ly             Lz            Xlo            Xhi            Ylo            Yhi            Zlo            Zhi           Volume           Dt            Time           CPU           T/CPU          S/CPU         CPULeft
61305000   5117.4085     -203.1425      -48945045       0.75309555     15238.769     -48929806       976.31052      976.31052      976.31052      2011.8447      2988.1553      2011.8447      2988.1553      2011.8447      2988.1553      9.3060185e+08  0.1            19295000       0              0              0              0
Averages over the last 751 of 1501 rows, steps 61455000 to 61605000:
Temp Press PotEng Density KinEng TotEng Lx Ly Lz Xlo Xhi Ylo Yhi Zlo Zhi Volume Dt
308.324 1.03841 -4.95078e+07 0.765276 918.135 -4.95069e+07 971.103 971.103 971.103 2014.45 2985.55 2014.45 2985.55 2014.45 2985.55 9.15791e+08 0.1
Loop time of 51.7386 on 1 procs for 300000 steps with 1000 atoms

# run_style
run_style verlet

# write restart
write_restart ./pgnpmf/01000/equpmf88.res
System init for write_restart ...
Generated 0 of 1 mixed pair_coeff terms from geometric mixing rule
