LAMMPS (23 Jun 2022 - Update 1)
# Read restart
read_restart ./pgnpmf/01000/equpmf30.res
Reading restart file ...
  restart file = 23 Jun 2022, LAMMPS = 23 Jun 2022
  restoring atom style atomic from restart
  orthogonal box = (1717.5525 1717.5525 1717.5525) to (3282.4475 3282.4475 3282.4475)
  restoring pair style table from restart
  1000 atoms
  read_restart CPU = 0.014 seconds

# Settings

pair_style table spline 9941

pair_coeff 1 1 ./pgnpmf/N20.txt DE_GNP 75.6
pair_coeff 2 2 ./pgnpmf/N100.txt DE_GNP 115.92
pair_coeff 1 2 ./pgnpmf/mixed_potential.txt DE_GNP 95.66

#Neigh_list Calc Frequency

neigh_modify delay 0 every 1 check yes

# Saving Frequency (50 frames)

variable ts_save equal 5000

# Dump
#dump_modify 1 first no sort id
#dump 2 all cfg 50000 ./equilibration/trajectory/ovito/dumpgen.tens_*.cfg mass type xs ys zs fx fy fz

# thermo_style
thermo_style custom step temp press pe density ke etotal lx ly lz xlo xhi ylo yhi zlo zhi vol dt time cpu tpcpu spcpu cpuremain

# run info
timestep 0.5
thermo 200

# fix

fix 1 all momentum 1000 linear 1 1 1 angular
variable T equal 300
fix 2 all nvt temp 300 370000 100.0

run 100000
Generated 0 of 1 mixed pair_coeff terms from geometric mixing rule
Unused restart file global fix info:
  fix style: npt, fix ID: 5
  update every 1 steps, delay 0 steps, check yes
Step          Temp          Press          PotEng        Density         KinEng         TotEng           Lx             Ly             Lz            Xlo            Xhi            Ylo            Yhi            Zlo            Zhi           Volume           Dt            Time           CPU           T/CPU          S/CPU         CPULeft
21005000   304.7665       0.88082474    -32026676       0.18287672     907.54258     -32025768       1564.895       1564.895       1564.895       1717.5525      3282.4475      1717.5525      3282.4475      1717.5525      3282.4475      3.8322654e+09  0.5            10505000       0              0              0              0
Averages over the last 251 of 501 rows, steps 21055000 to 21105000:
Temp Press PotEng Density KinEng TotEng Lx Ly Lz Xlo Xhi Ylo Yhi Zlo Zhi Volume Dt
277713 4.35914 -3.12622e+07 0.182877 826981 -3.04352e+07 1564.89 1564.89 1564.89 1717.55 3282.45 1717.55 3282.45 1717.55 3282.45 3.83227e+09 0.5
Loop time of 8.24703 on 4 procs for 100000 steps with 1000 atoms

unfix 2

fix 3 all nvt temp 370000 370000 $(100.0*dt) #iso 1.0 1.0 $(1000.0*dt)
fix 3 all nvt temp 370000 370000 50

run 200000
Generated 0 of 1 mixed pair_coeff terms from geometric mixing rule
Step          Temp          Press          PotEng        Density         KinEng         TotEng           Lx             Ly             Lz            Xlo            Xhi            Ylo            Yhi            Zlo            Zhi           Volume           Dt            Time           CPU           T/CPU          S/CPU         CPULeft
21105000   384297.58      1.2421664     -30631162       0.18287672     1144372.6     -29486790       1564.895       1564.895       1564.895       1717.5525      3282.4475      1717.5525      3282.4475      1717.5525      3282.4475      3.8322654e+09  0.5            10555000       0              0              0              0
Averages over the last 501 of 1001 rows, steps 21205000 to 21305000:
Temp Press PotEng Density KinEng TotEng Lx Ly Lz Xlo Xhi Ylo Yhi Zlo Zhi Volume Dt
370084 6.1258 -3.02634e+07 0.182877 1.10205e+06 -2.91614e+07 1564.89 1564.89 1564.89 1717.55 3282.45 1717.55 3282.45 1717.55 3282.45 3.83227e+09 0.5
Loop time of 16.6879 on 4 procs for 200000 steps with 1000 atoms

unfix 3

fix 4 all nvt temp 370000 300 100.0

run 100000
Generated 0 of 1 mixed pair_coeff terms from geometric mixing rule
Step          Temp          Press          PotEng        Density         KinEng         TotEng           Lx             Ly             Lz            Xlo            Xhi            Ylo            Yhi            Zlo            Zhi           Volume           Dt            Time           CPU           T/CPU          S/CPU         CPULeft
21305000   381158.74      2.1385395     -30162061       0.18287672     1135025.6     -29027036       1564.895       1564.895       1564.895       1717.5525      3282.4475      1717.5525      3282.4475      1717.5525      3282.4475      3.8322654e+09  0.5            10655000       0              0              0              0
Averages over the last 251 of 501 rows, steps 21355000 to 21405000:
Temp Press PotEng Density KinEng TotEng Lx Ly Lz Xlo Xhi Ylo Yhi Zlo Zhi Volume Dt
93155.9 -13.2144 -3.16003e+07 0.182877 277402 -3.13229e+07 1564.89 1564.89 1564.89 1717.55 3282.45 1717.55 3282.45 1717.55 3282.45 3.83227e+09 0.5
Loop time of 8.3366 on 4 procs for 100000 steps with 1000 atoms

unfix 4

fix 5 all npt temp 300 300 $(100.0*dt) iso 1.0 1.0 $(1000.0*dt)
fix 5 all npt temp 300 300 50 iso 1.0 1.0 $(1000.0*dt)
fix 5 all npt temp 300 300 50 iso 1.0 1.0 500

run 300000
Generated 0 of 1 mixed pair_coeff terms from geometric mixing rule
Step          Temp          Press          PotEng        Density         KinEng         TotEng           Lx             Ly             Lz            Xlo            Xhi            Ylo            Yhi            Zlo            Zhi           Volume           Dt            Time           CPU           T/CPU          S/CPU         CPULeft
21405000   1361.9196     -15.759666     -31991762       0.18287672     4055.5639     -31987706       1564.895       1564.895       1564.895       1717.5525      3282.4475      1717.5525      3282.4475      1717.5525      3282.4475      3.8322654e+09  0.5            10705000       0              0              0              0
Averages over the last 751 of 1501 rows, steps 21555000 to 21705000:
Temp Press PotEng Density KinEng TotEng Lx Ly Lz Xlo Xhi Ylo Yhi Zlo Zhi Volume Dt
307.079 0.996306 -3.23352e+07 0.186108 914.429 -3.23343e+07 1555.79 1555.79 1555.79 1722.11 3277.89 1722.11 3277.89 1722.11 3277.89 3.76574e+09 0.5
Loop time of 31.4178 on 4 procs for 300000 steps with 1000 atoms

# run_style
run_style verlet

# write restart
write_restart ./pgnpmf/01000/equpmf31.res
System init for write_restart ...
Generated 0 of 1 mixed pair_coeff terms from geometric mixing rule
