LAMMPS (23 Jun 2022 - Update 1)
###

# Read restart info
read_restart ./200800/equpmf71.res
Reading restart file ...
  restart file = 23 Jun 2022, LAMMPS = 23 Jun 2022
  restoring atom style atomic from restart
  orthogonal box = (2134.1279 2134.1279 2134.1279) to (2865.8721 2865.8721 2865.8721)
  restoring pair style table from restart
  1000 atoms
  read_restart CPU = 0.039 seconds

# Settings
pair_style table/pgn spline 9941
pair_coeff 1 1 N20.txt DE_GNP 147.89 75.6
pair_coeff 2 2 N100.txt DE_GNP 473.9 115.92
pair_coeff 1 2 mixed_potential.txt DE_GNP 391.2 95.66

# Neighbor list
neighbor 2.0 bin
neigh_modify delay 0 every 1 check yes

# Temperature
variable T equal 300

# Deformation
reset_timestep 0
variable tmp equal "lx"
variable L0 equal 731.744158924705
variable strain equal "(lx - v_L0)/v_L0"
variable stp equal "step"
variable tmpe equal "temp"
variable p1 equal "v_strain"
variable p2 equal "-pxx*1.01325/10000"
variable p3 equal "-pyy*1.01325/10000"
variable p4 equal "-pzz*1.01325/10000"
variable p5 equal "lx"
variable p6 equal "ly"
variable p7 equal "lz"
variable p8 equal "press"
variable p9 equal "epair"
variable p10 equal "etotal"

# Thermo
thermo_style custom step temp v_p1 v_p2 v_p3 v_p4 press lx ly lz vol density epair pe ke etotal pxx pyy pzz pxy pxz pyz spcpu
thermo 100

# Dump
dump 1 all custom 1000 ./tensile/trajectory/trajectory_1_1_*.tensile.custom id type x y z ix iy iz
dump_modify 1 sort id
dump 2 all cfg 1000 ./tensile/trajectory/ovito/dumpten.tens_*.cfg mass type xs ys zs fx fy fz
dump_modify 2 element N20 N100

fix 1 all nvt temp 300 300 100
fix 2 all deform 1 x erate 5e-6 y erate 5e-6 z erate 5e-6 units box

timestep       		1
run				250000
Generated 0 of 1 mixed pair_coeff terms from geometric mixing rule
Unused restart file global fix info:
  fix style: npt, fix ID: 5
  update every 1 steps, delay 0 steps, check yes
Step          Temp           v_p1           v_p2           v_p3           v_p4          Press            Lx             Ly             Lz           Volume        Density         E_pair         PotEng         KinEng         TotEng          Pxx            Pyy            Pzz            Pxy            Pxz            Pyz           S/CPU
0   305.3598      -4.6609257e-16  0.015657731    0.0076900179   0.0035009673  -88.325408      731.74416      731.74416      731.74416      3.9181205e+08  1.6190011     -48307879      -48307879       909.30935     -48306970      -154.52979     -75.894576     -34.551861      111.16884      3.0997421      10.276287      0
Averages over the last 1251 of 2501 rows, steps 125000 to 250000:
Temp v_p1 v_p2 v_p3 v_p4 Press Lx Ly Lz Volume Density E_pair PotEng KinEng TotEng Pxx Pyy Pzz Pxy Pxz Pyz
311.745 0.9375 0.000195319 0.000151215 0.000183376 -1.74327 1417.75 1417.75 1417.75 2.92398e+09 0.234668 -219782 -219782 928.322 -218854 -1.92765 -1.49237 -1.80978 -0.0547044 -0.0901413 -0.142066
Loop time of 22.991 on 1 procs for 250000 steps with 1000 atoms

# restart file
write_restart ./tensile/restart/restart_1_1.tensile.restart
System init for write_restart ...
Generated 0 of 1 mixed pair_coeff terms from geometric mixing rule
