LAMMPS (23 Jun 2022 - Update 1)
# Read restart
read_restart ./pgnpmf/55/equpmf15.res
Reading restart file ...
  restart file = 23 Jun 2022, LAMMPS = 23 Jun 2022
  restoring atom style atomic from restart
  orthogonal box = (1396.2891 1396.2891 1396.2891) to (2603.7109 2603.7109 2603.7109)
  restoring pair style table from restart
  1000 atoms
  read_restart CPU = 0.005 seconds

# Settings

pair_style table spline 9941

pair_coeff 1 1 ./pgnpmf/N20.txt DE_GNP 75.6
pair_coeff 2 2 ./pgnpmf/N100.txt DE_GNP 115.92
pair_coeff 1 2 ./pgnpmf/mixed_potential.txt DE_GNP 95.66

#Neigh_list Calc Frequency

neigh_modify delay 0 every 1 check yes

# Saving Frequency (50 frames)

variable ts_save equal 5000

variable nts equal 5000/0.25
variable medium equal 20000*3
variable long equal 20000*5

# Dump
#dump_modify 1 first no sort id
dump 2 all cfg 50000 ./pgnpmf/55/equilibration/trajectory/dumpequ.tens_*.cfg mass type xs ys zs fx fy fz
dump_modify 2 element N20 N100

# thermo_style
thermo_style custom step temp press pe density ke etotal lx ly lz xlo xhi ylo yhi zlo zhi vol dt time cpu tpcpu spcpu cpuremain

# run info
timestep 0.25
thermo 5000

# fix

fix 1 all momentum 1000 linear 1 1 1 angular
variable T equal 300
fix 2 all nvt temp 300 370000 100.0

run 20000
Generated 0 of 1 mixed pair_coeff terms from geometric mixing rule
Unused restart file global fix info:
  fix style: npt, fix ID: 5
  update every 1 steps, delay 0 steps, check yes
Step          Temp          Press          PotEng        Density         KinEng         TotEng           Lx             Ly             Lz            Xlo            Xhi            Ylo            Yhi            Zlo            Zhi           Volume           Dt            Time           CPU           T/CPU          S/CPU         CPULeft
3060000   331.08434      0.71807603    -5738474.1      0.30371184     985.91263     -5737488.2      1207.4219      1207.4219      1207.4219      1396.2891      2603.7109      1396.2891      2603.7109      1396.2891      2603.7109      1.7602612e+09  0.25           810000         0              0              0              0
Loop time of 0.804195 on 4 procs for 20000 steps with 1000 atoms

unfix 2

fix 3 all nvt temp 370000 370000 $(100.0*dt) #iso 1.0 1.0 $(1000.0*dt)
fix 3 all nvt temp 370000 370000 25

run 100000
Generated 0 of 1 mixed pair_coeff terms from geometric mixing rule
Step          Temp          Press          PotEng        Density         KinEng         TotEng           Lx             Ly             Lz            Xlo            Xhi            Ylo            Yhi            Zlo            Zhi           Volume           Dt            Time           CPU           T/CPU          S/CPU         CPULeft
3080000   371495.2       48.772532     -5747145.6      0.30371184     1106249.3     -4640896.4      1207.4219      1207.4219      1207.4219      1396.2891      2603.7109      1396.2891      2603.7109      1396.2891      2603.7109      1.7602612e+09  0.25           815000         0              0              0              0
Averages over the last 11 of 21 rows, steps 3130000 to 3180000:
Temp Press PotEng Density KinEng TotEng Lx Ly Lz Xlo Xhi Ylo Yhi Zlo Zhi Volume Dt
373613 28.3683 -5.66408e+06 0.303712 1.11256e+06 -4.55152e+06 1207.42 1207.42 1207.42 1396.29 2603.71 1396.29 2603.71 1396.29 2603.71 1.76026e+09 0.25
Loop time of 4.06351 on 4 procs for 100000 steps with 1000 atoms

unfix 3

fix 4 all nvt temp 370000 300 100.0

run 20000
Generated 0 of 1 mixed pair_coeff terms from geometric mixing rule
Step          Temp          Press          PotEng        Density         KinEng         TotEng           Lx             Ly             Lz            Xlo            Xhi            Ylo            Yhi            Zlo            Zhi           Volume           Dt            Time           CPU           T/CPU          S/CPU         CPULeft
3180000   357516.28      10.759516     -5662375        0.30371184     1064622.4     -4597752.6      1207.4219      1207.4219      1207.4219      1396.2891      2603.7109      1396.2891      2603.7109      1396.2891      2603.7109      1.7602612e+09  0.25           840000         0              0              0              0
Loop time of 0.805594 on 4 procs for 20000 steps with 1000 atoms

unfix 4

fix 5 all npt temp 300 300 $(100.0*dt) iso 1.0 1.0 $(1000.0*dt)
fix 5 all npt temp 300 300 25 iso 1.0 1.0 $(1000.0*dt)
fix 5 all npt temp 300 300 25 iso 1.0 1.0 250

run 60000
Generated 0 of 1 mixed pair_coeff terms from geometric mixing rule
Step          Temp          Press          PotEng        Density         KinEng         TotEng           Lx             Ly             Lz            Xlo            Xhi            Ylo            Yhi            Zlo            Zhi           Volume           Dt            Time           CPU           T/CPU          S/CPU         CPULeft
3200000   8168.9166     -47.612378     -5802639.7      0.30371184     24325.639     -5778314        1207.4219      1207.4219      1207.4219      1396.2891      2603.7109      1396.2891      2603.7109      1396.2891      2603.7109      1.7602612e+09  0.25           845000         0              0              0              0
Averages over the last 7 of 13 rows, steps 3230000 to 3260000:
Temp Press PotEng Density KinEng TotEng Lx Ly Lz Xlo Xhi Ylo Yhi Zlo Zhi Volume Dt
333.185 1.05436 -6.38109e+06 0.338296 992.169 -6.38009e+06 1164.81 1164.81 1164.81 1417.6 2582.4 1417.6 2582.4 1417.6 2582.4 1.58044e+09 0.25
Loop time of 3.33448 on 4 procs for 60000 steps with 1000 atoms

# run_style
run_style verlet

# write restart
write_restart ./pgnpmf/55/equpmf16.res
System init for write_restart ...
Generated 0 of 1 mixed pair_coeff terms from geometric mixing rule
