LAMMPS (23 Jun 2022 - Update 1)
# Read restart
read_restart ./pgnpmf/55/equpmf29.res
Reading restart file ...
  restart file = 23 Jun 2022, LAMMPS = 23 Jun 2022
  restoring atom style atomic from restart
  orthogonal box = (1585.1879 1585.1879 1585.1879) to (2414.8121 2414.8121 2414.8121)
  restoring pair style table from restart
  1000 atoms
  read_restart CPU = 0.006 seconds

# Settings

pair_style table spline 9941

pair_coeff 1 1 ./pgnpmf/N20.txt DE_GNP 75.6
pair_coeff 2 2 ./pgnpmf/N100.txt DE_GNP 115.92
pair_coeff 1 2 ./pgnpmf/mixed_potential.txt DE_GNP 95.66

#Neigh_list Calc Frequency

neigh_modify delay 0 every 1 check yes

# Saving Frequency (50 frames)

variable ts_save equal 5000

variable nts equal 5000/0.25
variable medium equal 20000*3
variable long equal 20000*5

# Dump
#dump_modify 1 first no sort id
dump 2 all cfg 50000 ./pgnpmf/55/equilibration/trajectory/dumpequ.tens_*.cfg mass type xs ys zs fx fy fz
dump_modify 2 element N20 N100

# thermo_style
thermo_style custom step temp press pe density ke etotal lx ly lz xlo xhi ylo yhi zlo zhi vol dt time cpu tpcpu spcpu cpuremain

# run info
timestep 0.25
thermo 5000

# fix

fix 1 all momentum 1000 linear 1 1 1 angular
variable T equal 300
fix 2 all nvt temp 300 370000 100.0

run 20000
Generated 0 of 1 mixed pair_coeff terms from geometric mixing rule
Unused restart file global fix info:
  fix style: npt, fix ID: 5
  update every 1 steps, delay 0 steps, check yes
Step          Temp          Press          PotEng        Density         KinEng         TotEng           Lx             Ly             Lz            Xlo            Xhi            Ylo            Yhi            Zlo            Zhi           Volume           Dt            Time           CPU           T/CPU          S/CPU         CPULeft
5860000   339.76012      0.96529041    -20993026       0.93625617     1011.7476     -20992014       829.62414      829.62414      829.62414      1585.1879      2414.8121      1585.1879      2414.8121      1585.1879      2414.8121      5.7101057e+08  0.25           1510000        0              0              0              0
Loop time of 1.47481 on 4 procs for 20000 steps with 1000 atoms

unfix 2

fix 3 all nvt temp 370000 370000 $(100.0*dt) #iso 1.0 1.0 $(1000.0*dt)
fix 3 all nvt temp 370000 370000 25

run 100000
Generated 0 of 1 mixed pair_coeff terms from geometric mixing rule
Step          Temp          Press          PotEng        Density         KinEng         TotEng           Lx             Ly             Lz            Xlo            Xhi            Ylo            Yhi            Zlo            Zhi           Volume           Dt            Time           CPU           T/CPU          S/CPU         CPULeft
5880000   366271.7      -82.007915     -20945008       0.93625617     1090694.6     -19854314       829.62414      829.62414      829.62414      1585.1879      2414.8121      1585.1879      2414.8121      1585.1879      2414.8121      5.7101057e+08  0.25           1515000        0              0              0              0
Averages over the last 11 of 21 rows, steps 5930000 to 5980000:
Temp Press PotEng Density KinEng TotEng Lx Ly Lz Xlo Xhi Ylo Yhi Zlo Zhi Volume Dt
372958 10.8283 -2.11369e+07 0.936256 1.1106e+06 -2.00263e+07 829.624 829.624 829.624 1585.19 2414.81 1585.19 2414.81 1585.19 2414.81 5.71011e+08 0.25
Loop time of 7.44094 on 4 procs for 100000 steps with 1000 atoms

unfix 3

fix 4 all nvt temp 370000 300 100.0

run 20000
Generated 0 of 1 mixed pair_coeff terms from geometric mixing rule
Step          Temp          Press          PotEng        Density         KinEng         TotEng           Lx             Ly             Lz            Xlo            Xhi            Ylo            Yhi            Zlo            Zhi           Volume           Dt            Time           CPU           T/CPU          S/CPU         CPULeft
5980000   368411.49     -11.325138     -21090662       0.93625617     1097066.5     -19993595       829.62414      829.62414      829.62414      1585.1879      2414.8121      1585.1879      2414.8121      1585.1879      2414.8121      5.7101057e+08  0.25           1540000        0              0              0              0
Loop time of 1.45297 on 4 procs for 20000 steps with 1000 atoms

unfix 4

fix 5 all npt temp 300 300 $(100.0*dt) iso 1.0 1.0 $(1000.0*dt)
fix 5 all npt temp 300 300 25 iso 1.0 1.0 $(1000.0*dt)
fix 5 all npt temp 300 300 25 iso 1.0 1.0 250

run 60000
Generated 0 of 1 mixed pair_coeff terms from geometric mixing rule
Step          Temp          Press          PotEng        Density         KinEng         TotEng           Lx             Ly             Lz            Xlo            Xhi            Ylo            Yhi            Zlo            Zhi           Volume           Dt            Time           CPU           T/CPU          S/CPU         CPULeft
6000000   8913.5703     -419.84639     -21414010       0.93625617     26543.09      -21387467       829.62414      829.62414      829.62414      1585.1879      2414.8121      1585.1879      2414.8121      1585.1879      2414.8121      5.7101057e+08  0.25           1545000        0              0              0              0
Averages over the last 7 of 13 rows, steps 6030000 to 6060000:
Temp Press PotEng Density KinEng TotEng Lx Ly Lz Xlo Xhi Ylo Yhi Zlo Zhi Volume Dt
343.35 0.745233 -2.20549e+07 0.984872 1022.44 -2.20539e+07 815.744 815.744 815.744 1592.13 2407.87 1592.13 2407.87 1592.13 2407.87 5.4283e+08 0.25
Loop time of 5.16326 on 4 procs for 60000 steps with 1000 atoms

# run_style
run_style verlet

# write restart
write_restart ./pgnpmf/55/equpmf30.res
System init for write_restart ...
Generated 0 of 1 mixed pair_coeff terms from geometric mixing rule
