LAMMPS (23 Jun 2022 - Update 1)
# Read restart
read_restart ./pgnpmf/55/equpmf18.res
Reading restart file ...
  restart file = 23 Jun 2022, LAMMPS = 23 Jun 2022
  restoring atom style atomic from restart
  orthogonal box = (1458.5216 1458.5216 1458.5216) to (2541.4784 2541.4784 2541.4784)
  restoring pair style table from restart
  1000 atoms
  read_restart CPU = 0.006 seconds

# Settings

pair_style table spline 9941

pair_coeff 1 1 ./pgnpmf/N20.txt DE_GNP 75.6
pair_coeff 2 2 ./pgnpmf/N100.txt DE_GNP 115.92
pair_coeff 1 2 ./pgnpmf/mixed_potential.txt DE_GNP 95.66

#Neigh_list Calc Frequency

neigh_modify delay 0 every 1 check yes

# Saving Frequency (50 frames)

variable ts_save equal 5000

variable nts equal 5000/0.25
variable medium equal 20000*3
variable long equal 20000*5

# Dump
#dump_modify 1 first no sort id
dump 2 all cfg 50000 ./pgnpmf/55/equilibration/trajectory/dumpequ.tens_*.cfg mass type xs ys zs fx fy fz
dump_modify 2 element N20 N100

# thermo_style
thermo_style custom step temp press pe density ke etotal lx ly lz xlo xhi ylo yhi zlo zhi vol dt time cpu tpcpu spcpu cpuremain

# run info
timestep 0.25
thermo 5000

# fix

fix 1 all momentum 1000 linear 1 1 1 angular
variable T equal 300
fix 2 all nvt temp 300 370000 100.0

run 20000
Generated 0 of 1 mixed pair_coeff terms from geometric mixing rule
Unused restart file global fix info:
  fix style: npt, fix ID: 5
  update every 1 steps, delay 0 steps, check yes
Step          Temp          Press          PotEng        Density         KinEng         TotEng           Lx             Ly             Lz            Xlo            Xhi            Ylo            Yhi            Zlo            Zhi           Volume           Dt            Time           CPU           T/CPU          S/CPU         CPULeft
3660000   333.41762      1.0507111     -8097074.5      0.42092581     992.86074     -8096081.7      1082.9567      1082.9567      1082.9567      1458.5216      2541.4784      1458.5216      2541.4784      1458.5216      2541.4784      1.2700864e+09  0.25           960000         0              0              0              0
Loop time of 0.890777 on 4 procs for 20000 steps with 1000 atoms

unfix 2

fix 3 all nvt temp 370000 370000 $(100.0*dt) #iso 1.0 1.0 $(1000.0*dt)
fix 3 all nvt temp 370000 370000 25

run 100000
Generated 0 of 1 mixed pair_coeff terms from geometric mixing rule
Step          Temp          Press          PotEng        Density         KinEng         TotEng           Lx             Ly             Lz            Xlo            Xhi            Ylo            Yhi            Zlo            Zhi           Volume           Dt            Time           CPU           T/CPU          S/CPU         CPULeft
3680000   369689.04      69.205457     -8079623.2      0.42092581     1100870.8     -6978752.4      1082.9567      1082.9567      1082.9567      1458.5216      2541.4784      1458.5216      2541.4784      1458.5216      2541.4784      1.2700864e+09  0.25           965000         0              0              0              0
Averages over the last 11 of 21 rows, steps 3730000 to 3780000:
Temp Press PotEng Density KinEng TotEng Lx Ly Lz Xlo Xhi Ylo Yhi Zlo Zhi Volume Dt
374936 29.7961 -8.14471e+06 0.420926 1.11649e+06 -7.02822e+06 1082.96 1082.96 1082.96 1458.52 2541.48 1458.52 2541.48 1458.52 2541.48 1.27009e+09 0.25
Loop time of 4.47331 on 4 procs for 100000 steps with 1000 atoms

unfix 3

fix 4 all nvt temp 370000 300 100.0

run 20000
Generated 0 of 1 mixed pair_coeff terms from geometric mixing rule
Step          Temp          Press          PotEng        Density         KinEng         TotEng           Lx             Ly             Lz            Xlo            Xhi            Ylo            Yhi            Zlo            Zhi           Volume           Dt            Time           CPU           T/CPU          S/CPU         CPULeft
3780000   367987.33      11.952199     -8162344.1      0.42092581     1095803.4     -7066540.7      1082.9567      1082.9567      1082.9567      1458.5216      2541.4784      1458.5216      2541.4784      1458.5216      2541.4784      1.2700864e+09  0.25           990000         0              0              0              0
Loop time of 0.881832 on 4 procs for 20000 steps with 1000 atoms

unfix 4

fix 5 all npt temp 300 300 $(100.0*dt) iso 1.0 1.0 $(1000.0*dt)
fix 5 all npt temp 300 300 25 iso 1.0 1.0 $(1000.0*dt)
fix 5 all npt temp 300 300 25 iso 1.0 1.0 250

run 60000
Generated 0 of 1 mixed pair_coeff terms from geometric mixing rule
Step          Temp          Press          PotEng        Density         KinEng         TotEng           Lx             Ly             Lz            Xlo            Xhi            Ylo            Yhi            Zlo            Zhi           Volume           Dt            Time           CPU           T/CPU          S/CPU         CPULeft
3800000   8282.733      -74.31432      -8263779.8      0.42092581     24664.565     -8239115.2      1082.9567      1082.9567      1082.9567      1458.5216      2541.4784      1458.5216      2541.4784      1458.5216      2541.4784      1.2700864e+09  0.25           995000         0              0              0              0
Averages over the last 7 of 13 rows, steps 3830000 to 3860000:
Temp Press PotEng Density KinEng TotEng Lx Ly Lz Xlo Xhi Ylo Yhi Zlo Zhi Volume Dt
335.712 0.970912 -8.80233e+06 0.455343 999.692 -8.80133e+06 1054.97 1054.97 1054.97 1472.52 2527.48 1472.52 2527.48 1472.52 2527.48 1.17415e+09 0.25
Loop time of 3.59439 on 4 procs for 60000 steps with 1000 atoms

# run_style
run_style verlet

# write restart
write_restart ./pgnpmf/55/equpmf19.res
System init for write_restart ...
Generated 0 of 1 mixed pair_coeff terms from geometric mixing rule
