LAMMPS (23 Jun 2022 - Update 1)
# Read restart
read_restart ./pgnpmf/55/equpmf54.res
Reading restart file ...
  restart file = 23 Jun 2022, LAMMPS = 23 Jun 2022
  restoring atom style atomic from restart
  orthogonal box = (1669.7074 1669.7074 1669.7074) to (2330.2926 2330.2926 2330.2926)
  restoring pair style table from restart
  1000 atoms
  read_restart CPU = 0.005 seconds

# Settings

pair_style table spline 9941

pair_coeff 1 1 ./pgnpmf/N20.txt DE_GNP 75.6
pair_coeff 2 2 ./pgnpmf/N100.txt DE_GNP 115.92
pair_coeff 1 2 ./pgnpmf/mixed_potential.txt DE_GNP 95.66

#Neigh_list Calc Frequency

neigh_modify delay 0 every 1 check yes

# Saving Frequency (50 frames)

variable ts_save equal 5000

variable nts equal 5000/0.25
variable medium equal 20000*3
variable long equal 20000*5

# Dump
#dump_modify 1 first no sort id
dump 2 all cfg 50000 ./pgnpmf/55/equilibration/trajectory/dumpequ.tens_*.cfg mass type xs ys zs fx fy fz
dump_modify 2 element N20 N100

# thermo_style
thermo_style custom step temp press pe density ke etotal lx ly lz xlo xhi ylo yhi zlo zhi vol dt time cpu tpcpu spcpu cpuremain

# run info
timestep 0.25
thermo 5000

# fix

fix 1 all momentum 1000 linear 1 1 1 angular
variable T equal 300
fix 2 all nvt temp 300 370000 100.0

run 20000
Generated 0 of 1 mixed pair_coeff terms from geometric mixing rule
Unused restart file global fix info:
  fix style: npt, fix ID: 5
  update every 1 steps, delay 0 steps, check yes
Step          Temp          Press          PotEng        Density         KinEng         TotEng           Lx             Ly             Lz            Xlo            Xhi            Ylo            Yhi            Zlo            Zhi           Volume           Dt            Time           CPU           T/CPU          S/CPU         CPULeft
10860000   330.05421      2.9062223     -31942236       1.8546086      982.84508     -31941253       660.58522      660.58522      660.58522      1669.7074      2330.2926      1669.7074      2330.2926      1669.7074      2330.2926      2.8826145e+08  0.25           2760000        0              0              0              0
Loop time of 1.49919 on 4 procs for 20000 steps with 1000 atoms

unfix 2

fix 3 all nvt temp 370000 370000 $(100.0*dt) #iso 1.0 1.0 $(1000.0*dt)
fix 3 all nvt temp 370000 370000 25

run 100000
Generated 0 of 1 mixed pair_coeff terms from geometric mixing rule
Step          Temp          Press          PotEng        Density         KinEng         TotEng           Lx             Ly             Lz            Xlo            Xhi            Ylo            Yhi            Zlo            Zhi           Volume           Dt            Time           CPU           T/CPU          S/CPU         CPULeft
10880000   370709.93      742.20109     -31623705       1.8546086      1103910.9     -30519794       660.58522      660.58522      660.58522      1669.7074      2330.2926      1669.7074      2330.2926      1669.7074      2330.2926      2.8826145e+08  0.25           2765000        0              0              0              0
Averages over the last 11 of 21 rows, steps 10930000 to 10980000:
Temp Press PotEng Density KinEng TotEng Lx Ly Lz Xlo Xhi Ylo Yhi Zlo Zhi Volume Dt
369653 1783.45 -3.13917e+07 1.85461 1.10076e+06 -3.02909e+07 660.585 660.585 660.585 1669.71 2330.29 1669.71 2330.29 1669.71 2330.29 2.88261e+08 0.25
Loop time of 7.72046 on 4 procs for 100000 steps with 1000 atoms

unfix 3

fix 4 all nvt temp 370000 300 100.0

run 20000
Generated 0 of 1 mixed pair_coeff terms from geometric mixing rule
Step          Temp          Press          PotEng        Density         KinEng         TotEng           Lx             Ly             Lz            Xlo            Xhi            Ylo            Yhi            Zlo            Zhi           Volume           Dt            Time           CPU           T/CPU          S/CPU         CPULeft
10980000   368170.4       1746.0383     -31407252       1.8546086      1096348.6     -30310903       660.58522      660.58522      660.58522      1669.7074      2330.2926      1669.7074      2330.2926      1669.7074      2330.2926      2.8826145e+08  0.25           2790000        0              0              0              0
Loop time of 1.50329 on 4 procs for 20000 steps with 1000 atoms

unfix 4

fix 5 all npt temp 300 300 $(100.0*dt) iso 1.0 1.0 $(1000.0*dt)
fix 5 all npt temp 300 300 25 iso 1.0 1.0 $(1000.0*dt)
fix 5 all npt temp 300 300 25 iso 1.0 1.0 250

run 60000
Generated 0 of 1 mixed pair_coeff terms from geometric mixing rule
Step          Temp          Press          PotEng        Density         KinEng         TotEng           Lx             Ly             Lz            Xlo            Xhi            Ylo            Yhi            Zlo            Zhi           Volume           Dt            Time           CPU           T/CPU          S/CPU         CPULeft
11000000   9810.7152      377.3659      -31875486       1.8546086      29214.635     -31846271       660.58522      660.58522      660.58522      1669.7074      2330.2926      1669.7074      2330.2926      1669.7074      2330.2926      2.8826145e+08  0.25           2795000        0              0              0              0
Averages over the last 7 of 13 rows, steps 11030000 to 11060000:
Temp Press PotEng Density KinEng TotEng Lx Ly Lz Xlo Xhi Ylo Yhi Zlo Zhi Volume Dt
332.412 -0.0193896 -3.20021e+07 1.85398 989.866 -3.20011e+07 660.66 660.66 660.66 1669.67 2330.33 1669.67 2330.33 1669.67 2330.33 2.8836e+08 0.25
Loop time of 5.41144 on 4 procs for 60000 steps with 1000 atoms

# run_style
run_style verlet

# write restart
write_restart ./pgnpmf/55/equpmf55.res
System init for write_restart ...
Generated 0 of 1 mixed pair_coeff terms from geometric mixing rule
