LAMMPS (23 Jun 2022 - Update 1)
# Read restart
read_restart ./pgnpmf/010/genpmf.res
Reading restart file ...
  restart file = 23 Jun 2022, LAMMPS = 23 Jun 2022
  restoring atom style atomic from restart
  orthogonal box = (-100 -100 -100) to (4100 4100 4100)
  restoring pair style table from restart
  1000 atoms
  read_restart CPU = 0.005 seconds

# Settings

pair_style table spline 9941

pair_coeff 1 1 ./pgnpmf/N20.txt DE_GNP 75.6
pair_coeff 2 2 ./pgnpmf/N100.txt DE_GNP 115.92
pair_coeff 1 2 ./pgnpmf/mixed_potential.txt DE_GNP 95.66

#Neigh_list Calc Frequency

neigh_modify delay 0 every 1 check yes

# Saving Frequency (50 frames)

variable ts_save equal 5000

# Dump
#dump_modify 1 first no sort id
dump 2 all cfg 50000 ./pgnpmf/010/equilibration/trajectory/dumpgen.tens_*.cfg mass type xs ys zs fx fy fz
dump_modify 2 element N20 N100

# thermo_style
thermo_style custom step temp press pe density ke etotal lx ly lz xlo xhi ylo yhi zlo zhi vol dt time cpu tpcpu spcpu cpuremain

# run info
timestep 0.5
thermo 200

# fix

fix 1 all momentum 1000 linear 1 1 1 angular
variable T equal 300
fix 2 all nvt temp 300 370000 100.0
  fix style: nvt, fix ID: 2

run 100000
Generated 0 of 1 mixed pair_coeff terms from geometric mixing rule
Unused restart file global fix info:
  fix style: nvt, fix ID: 3
  fix style: nvt, fix ID: 4
  update every 1 steps, delay 0 steps, check yes
Step          Temp          Press          PotEng        Density         KinEng         TotEng           Lx             Ly             Lz            Xlo            Xhi            Ylo            Yhi            Zlo            Zhi           Volume           Dt            Time           CPU           T/CPU          S/CPU         CPULeft
410000   34794.975     -0.84996434    -24360206       0.0094594551   103613.49     -24256593       4200           4200           4200          -100            4100          -100            4100          -100            4100           7.4088e+10     0.5            410000         0              0              0              0
Averages over the last 251 of 501 rows, steps 460000 to 510000:
Temp Press PotEng Density KinEng TotEng Lx Ly Lz Xlo Xhi Ylo Yhi Zlo Zhi Volume Dt
277547 1.38303 -2.64506e+07 0.00945946 826487 -2.56242e+07 4200 4200 4200 -100 4100 -100 4100 -100 4100 7.4088e+10 0.5
Loop time of 10.621 on 4 procs for 100000 steps with 1000 atoms

unfix 2

fix 3 all nvt temp 370000 370000 $(100.0*dt) #iso 1.0 1.0 $(1000.0*dt)
fix 3 all nvt temp 370000 370000 50

run 200000
Generated 0 of 1 mixed pair_coeff terms from geometric mixing rule
Step          Temp          Press          PotEng        Density         KinEng         TotEng           Lx             Ly             Lz            Xlo            Xhi            Ylo            Yhi            Zlo            Zhi           Volume           Dt            Time           CPU           T/CPU          S/CPU         CPULeft
510000   362846.81      0.87149085    -26465152       0.0094594551   1080495.8     -25384656       4200           4200           4200          -100            4100          -100            4100          -100            4100           7.4088e+10     0.5            460000         0              0              0              0
Averages over the last 501 of 1001 rows, steps 610000 to 710000:
Temp Press PotEng Density KinEng TotEng Lx Ly Lz Xlo Xhi Ylo Yhi Zlo Zhi Volume Dt
370209 0.0487469 -2.43694e+07 0.00945946 1.10242e+06 -2.32669e+07 4200 4200 4200 -100 4100 -100 4100 -100 4100 7.4088e+10 0.5
Loop time of 21.3451 on 4 procs for 200000 steps with 1000 atoms

unfix 3

fix 4 all nvt temp 370000 300 100.0

run 100000
Generated 0 of 1 mixed pair_coeff terms from geometric mixing rule
Step          Temp          Press          PotEng        Density         KinEng         TotEng           Lx             Ly             Lz            Xlo            Xhi            Ylo            Yhi            Zlo            Zhi           Volume           Dt            Time           CPU           T/CPU          S/CPU         CPULeft
710000   375063.28     -0.40376409    -23896691       0.0094594551   1116874.4     -22779817       4200           4200           4200          -100            4100          -100            4100          -100            4100           7.4088e+10     0.5            560000         0              0              0              0
Averages over the last 251 of 501 rows, steps 760000 to 810000:
Temp Press PotEng Density KinEng TotEng Lx Ly Lz Xlo Xhi Ylo Yhi Zlo Zhi Volume Dt
93265 -2.21218 -2.55574e+07 0.00945946 277727 -2.52797e+07 4200 4200 4200 -100 4100 -100 4100 -100 4100 7.4088e+10 0.5
Loop time of 10.3929 on 4 procs for 100000 steps with 1000 atoms

unfix 4

fix 5 all npt temp 300 300 $(100.0*dt) iso 1.0 1.0 $(1000.0*dt)
fix 5 all npt temp 300 300 50 iso 1.0 1.0 $(1000.0*dt)
fix 5 all npt temp 300 300 50 iso 1.0 1.0 500

run 300000
Generated 0 of 1 mixed pair_coeff terms from geometric mixing rule
Step          Temp          Press          PotEng        Density         KinEng         TotEng           Lx             Ly             Lz            Xlo            Xhi            Ylo            Yhi            Zlo            Zhi           Volume           Dt            Time           CPU           T/CPU          S/CPU         CPULeft
810000   1355.7219     -2.501808      -26360604       0.0094594551   4037.1083     -26356567       4200           4200           4200          -100            4100          -100            4100          -100            4100           7.4088e+10     0.5            610000         0              0              0              0
Averages over the last 751 of 1501 rows, steps 960000 to 1110000:
Temp Press PotEng Density KinEng TotEng Lx Ly Lz Xlo Xhi Ylo Yhi Zlo Zhi Volume Dt
321.39 0.999787 -2.75802e+07 0.0104782 957.045 -2.75792e+07 4059.33 4059.33 4059.33 -29.6655 4029.67 -29.6655 4029.67 -29.6655 4029.67 6.68931e+10 0.5
Loop time of 39.509 on 4 procs for 300000 steps with 1000 atoms

# run_style
run_style verlet

# write restart
write_restart ./pgnpmf/010/equpmf1.res
System init for write_restart ...
Generated 0 of 1 mixed pair_coeff terms from geometric mixing rule
