LAMMPS (23 Jun 2022 - Update 1)
# Read restart
read_restart ./pgnpmf/010/equpmf62.res
Reading restart file ...
  restart file = 23 Jun 2022, LAMMPS = 23 Jun 2022
  restoring atom style atomic from restart
  orthogonal box = (1197.4535 1197.4535 1197.4535) to (2802.5465 2802.5465 2802.5465)
  restoring pair style table from restart
  1000 atoms
  read_restart CPU = 0.004 seconds

# Settings

pair_style table spline 9941

pair_coeff 1 1 ./pgnpmf/N20.txt DE_GNP 75.6
pair_coeff 2 2 ./pgnpmf/N100.txt DE_GNP 115.92
pair_coeff 1 2 ./pgnpmf/mixed_potential.txt DE_GNP 95.66

#Neigh_list Calc Frequency

neigh_modify delay 0 every 1 check yes

# Saving Frequency (50 frames)

variable ts_save equal 5000

# Dump
#dump_modify 1 first no sort id
dump 2 all cfg 50000 ./pgnpmf/010/equilibration/trajectory/dumpgen.tens_*.cfg mass type xs ys zs fx fy fz
dump_modify 2 element N20 N100

# thermo_style
thermo_style custom step temp press pe density ke etotal lx ly lz xlo xhi ylo yhi zlo zhi vol dt time cpu tpcpu spcpu cpuremain

# run info
timestep 0.5
thermo 200

# fix

fix 1 all momentum 1000 linear 1 1 1 angular
variable T equal 300
fix 2 all nvt temp 300 370000 100.0

run 100000
Generated 0 of 1 mixed pair_coeff terms from geometric mixing rule
Unused restart file global fix info:
  fix style: npt, fix ID: 5
  update every 1 steps, delay 0 steps, check yes
Step          Temp          Press          PotEng        Density         KinEng         TotEng           Lx             Ly             Lz            Xlo            Xhi            Ylo            Yhi            Zlo            Zhi           Volume           Dt            Time           CPU           T/CPU          S/CPU         CPULeft
43810000   307.24805      1.1599779     -31567488       0.16947803     914.93224     -31566573       1605.093       1605.093       1605.093       1197.4535      2802.5465      1197.4535      2802.5465      1197.4535      2802.5465      4.1352387e+09  0.5            22110000       0              0              0              0
Averages over the last 251 of 501 rows, steps 43860000 to 43910000:
Temp Press PotEng Density KinEng TotEng Lx Ly Lz Xlo Xhi Ylo Yhi Zlo Zhi Volume Dt
277621 8.76218 -3.1258e+07 0.169478 826708 -3.04313e+07 1605.09 1605.09 1605.09 1197.45 2802.55 1197.45 2802.55 1197.45 2802.55 4.13524e+09 0.5
Loop time of 9.8238 on 4 procs for 100000 steps with 1000 atoms

unfix 2

fix 3 all nvt temp 370000 370000 $(100.0*dt) #iso 1.0 1.0 $(1000.0*dt)
fix 3 all nvt temp 370000 370000 50

run 200000
Generated 0 of 1 mixed pair_coeff terms from geometric mixing rule
Step          Temp          Press          PotEng        Density         KinEng         TotEng           Lx             Ly             Lz            Xlo            Xhi            Ylo            Yhi            Zlo            Zhi           Volume           Dt            Time           CPU           T/CPU          S/CPU         CPULeft
43910000   374478.43      7.5184766     -31151711       0.16947803     1115132.8     -30036578       1605.093       1605.093       1605.093       1197.4535      2802.5465      1197.4535      2802.5465      1197.4535      2802.5465      4.1352387e+09  0.5            22160000       0              0              0              0
Averages over the last 501 of 1001 rows, steps 44010000 to 44110000:
Temp Press PotEng Density KinEng TotEng Lx Ly Lz Xlo Xhi Ylo Yhi Zlo Zhi Volume Dt
370072 9.27901 -3.10079e+07 0.169478 1.10201e+06 -2.99059e+07 1605.09 1605.09 1605.09 1197.45 2802.55 1197.45 2802.55 1197.45 2802.55 4.13524e+09 0.5
Loop time of 19.85 on 4 procs for 200000 steps with 1000 atoms

unfix 3

fix 4 all nvt temp 370000 300 100.0

run 100000
Generated 0 of 1 mixed pair_coeff terms from geometric mixing rule
Step          Temp          Press          PotEng        Density         KinEng         TotEng           Lx             Ly             Lz            Xlo            Xhi            Ylo            Yhi            Zlo            Zhi           Volume           Dt            Time           CPU           T/CPU          S/CPU         CPULeft
44110000   371031.05      21.016113     -31091970       0.16947803     1104867.1     -29987103       1605.093       1605.093       1605.093       1197.4535      2802.5465      1197.4535      2802.5465      1197.4535      2802.5465      4.1352387e+09  0.5            22260000       0              0              0              0
Averages over the last 251 of 501 rows, steps 44160000 to 44210000:
Temp Press PotEng Density KinEng TotEng Lx Ly Lz Xlo Xhi Ylo Yhi Zlo Zhi Volume Dt
92828.1 -2.30463 -3.15955e+07 0.169478 276426 -3.13191e+07 1605.09 1605.09 1605.09 1197.45 2802.55 1197.45 2802.55 1197.45 2802.55 4.13524e+09 0.5
Loop time of 9.82029 on 4 procs for 100000 steps with 1000 atoms

unfix 4

fix 5 all npt temp 300 300 $(100.0*dt) iso 1.0 1.0 $(1000.0*dt)
fix 5 all npt temp 300 300 50 iso 1.0 1.0 $(1000.0*dt)
fix 5 all npt temp 300 300 50 iso 1.0 1.0 500

run 300000
Generated 0 of 1 mixed pair_coeff terms from geometric mixing rule
Step          Temp          Press          PotEng        Density         KinEng         TotEng           Lx             Ly             Lz            Xlo            Xhi            Ylo            Yhi            Zlo            Zhi           Volume           Dt            Time           CPU           T/CPU          S/CPU         CPULeft
44210000   1347.975      -10.435535     -31795176       0.16947803     4014.0393     -31791162       1605.093       1605.093       1605.093       1197.4535      2802.5465      1197.4535      2802.5465      1197.4535      2802.5465      4.1352387e+09  0.5            22310000       0              0              0              0
Averages over the last 751 of 1501 rows, steps 44360000 to 44510000:
Temp Press PotEng Density KinEng TotEng Lx Ly Lz Xlo Xhi Ylo Yhi Zlo Zhi Volume Dt
303.388 1.00823 -3.19875e+07 0.171705 903.438 -3.19866e+07 1598.12 1598.12 1598.12 1200.94 2799.06 1200.94 2799.06 1200.94 2799.06 4.08162e+09 0.5
Loop time of 34.5983 on 4 procs for 300000 steps with 1000 atoms

# run_style
run_style verlet

# write restart
write_restart ./pgnpmf/010/equpmf63.res
System init for write_restart ...
Generated 0 of 1 mixed pair_coeff terms from geometric mixing rule
