LAMMPS (23 Jun 2022 - Update 1)
# Read restart
read_restart ./pgnpmf/010/equpmf7.res
Reading restart file ...
  restart file = 23 Jun 2022, LAMMPS = 23 Jun 2022
  restoring atom style atomic from restart
  orthogonal box = (249.73481 249.73481 249.73481) to (3750.2652 3750.2652 3750.2652)
  restoring pair style table from restart
  1000 atoms
  read_restart CPU = 0.004 seconds

# Settings

pair_style table spline 9941

pair_coeff 1 1 ./pgnpmf/N20.txt DE_GNP 75.6
pair_coeff 2 2 ./pgnpmf/N100.txt DE_GNP 115.92
pair_coeff 1 2 ./pgnpmf/mixed_potential.txt DE_GNP 95.66

#Neigh_list Calc Frequency

neigh_modify delay 0 every 1 check yes

# Saving Frequency (50 frames)

variable ts_save equal 5000

# Dump
#dump_modify 1 first no sort id
dump 2 all cfg 50000 ./pgnpmf/010/equilibration/trajectory/dumpgen.tens_*.cfg mass type xs ys zs fx fy fz
dump_modify 2 element N20 N100

# thermo_style
thermo_style custom step temp press pe density ke etotal lx ly lz xlo xhi ylo yhi zlo zhi vol dt time cpu tpcpu spcpu cpuremain

# run info
timestep 0.5
thermo 200

# fix

fix 1 all momentum 1000 linear 1 1 1 angular
variable T equal 300
fix 2 all nvt temp 300 370000 100.0

run 100000
Generated 0 of 1 mixed pair_coeff terms from geometric mixing rule
Unused restart file global fix info:
  fix style: npt, fix ID: 5
  update every 1 steps, delay 0 steps, check yes
Step          Temp          Press          PotEng        Density         KinEng         TotEng           Lx             Ly             Lz            Xlo            Xhi            Ylo            Yhi            Zlo            Zhi           Volume           Dt            Time           CPU           T/CPU          S/CPU         CPULeft
5310000   311.13505      1.000885      -31840124       0.01633851     926.50705     -31839197       3500.5304      3500.5304      3500.5304      249.73481      3750.2652      249.73481      3750.2652      249.73481      3750.2652      4.2894494e+10  0.5            2860000        0              0              0              0
Averages over the last 251 of 501 rows, steps 5360000 to 5410000:
Temp Press PotEng Density KinEng TotEng Lx Ly Lz Xlo Xhi Ylo Yhi Zlo Zhi Volume Dt
277426 1.71548 -3.12739e+07 0.0163385 826128 -3.04478e+07 3500.53 3500.53 3500.53 249.735 3750.27 249.735 3750.27 249.735 3750.27 4.28945e+10 0.5
Loop time of 11.8775 on 4 procs for 100000 steps with 1000 atoms

unfix 2

fix 3 all nvt temp 370000 370000 $(100.0*dt) #iso 1.0 1.0 $(1000.0*dt)
fix 3 all nvt temp 370000 370000 50

run 200000
Generated 0 of 1 mixed pair_coeff terms from geometric mixing rule
Step          Temp          Press          PotEng        Density         KinEng         TotEng           Lx             Ly             Lz            Xlo            Xhi            Ylo            Yhi            Zlo            Zhi           Volume           Dt            Time           CPU           T/CPU          S/CPU         CPULeft
5410000   362305.82     -0.55235408    -30442317       0.01633851     1078884.9     -29363432       3500.5304      3500.5304      3500.5304      249.73481      3750.2652      249.73481      3750.2652      249.73481      3750.2652      4.2894494e+10  0.5            2910000        0              0              0              0
Averages over the last 501 of 1001 rows, steps 5510000 to 5610000:
Temp Press PotEng Density KinEng TotEng Lx Ly Lz Xlo Xhi Ylo Yhi Zlo Zhi Volume Dt
370168 0.215322 -2.88414e+07 0.0163385 1.1023e+06 -2.77391e+07 3500.53 3500.53 3500.53 249.735 3750.27 249.735 3750.27 249.735 3750.27 4.28945e+10 0.5
Loop time of 23.0393 on 4 procs for 200000 steps with 1000 atoms

unfix 3

fix 4 all nvt temp 370000 300 100.0

run 100000
Generated 0 of 1 mixed pair_coeff terms from geometric mixing rule
Step          Temp          Press          PotEng        Density         KinEng         TotEng           Lx             Ly             Lz            Xlo            Xhi            Ylo            Yhi            Zlo            Zhi           Volume           Dt            Time           CPU           T/CPU          S/CPU         CPULeft
5610000   366336.97      0.32092991    -28770539       0.01633851     1090888.9     -27679650       3500.5304      3500.5304      3500.5304      249.73481      3750.2652      249.73481      3750.2652      249.73481      3750.2652      4.2894494e+10  0.5            3010000        0              0              0              0
Averages over the last 251 of 501 rows, steps 5660000 to 5710000:
Temp Press PotEng Density KinEng TotEng Lx Ly Lz Xlo Xhi Ylo Yhi Zlo Zhi Volume Dt
93186.2 -2.99683 -3.02205e+07 0.0163385 277493 -2.9943e+07 3500.53 3500.53 3500.53 249.735 3750.27 249.735 3750.27 249.735 3750.27 4.28945e+10 0.5
Loop time of 11.3899 on 4 procs for 100000 steps with 1000 atoms

unfix 4

fix 5 all npt temp 300 300 $(100.0*dt) iso 1.0 1.0 $(1000.0*dt)
fix 5 all npt temp 300 300 50 iso 1.0 1.0 $(1000.0*dt)
fix 5 all npt temp 300 300 50 iso 1.0 1.0 500

run 300000
Generated 0 of 1 mixed pair_coeff terms from geometric mixing rule
Step          Temp          Press          PotEng        Density         KinEng         TotEng           Lx             Ly             Lz            Xlo            Xhi            Ylo            Yhi            Zlo            Zhi           Volume           Dt            Time           CPU           T/CPU          S/CPU         CPULeft
5710000   1337.8517     -3.0745734     -30945669       0.01633851     3983.8939     -30941685       3500.5304      3500.5304      3500.5304      249.73481      3750.2652      249.73481      3750.2652      249.73481      3750.2652      4.2894494e+10  0.5            3060000        0              0              0              0
Averages over the last 751 of 1501 rows, steps 5860000 to 6010000:
Temp Press PotEng Density KinEng TotEng Lx Ly Lz Xlo Xhi Ylo Yhi Zlo Zhi Volume Dt
311.063 1.00096 -3.15015e+07 0.0171629 926.294 -3.15005e+07 3443.58 3443.58 3443.58 278.21 3721.79 278.21 3721.79 278.21 3721.79 4.08352e+10 0.5
Loop time of 41.8069 on 4 procs for 300000 steps with 1000 atoms

# run_style
run_style verlet

# write restart
write_restart ./pgnpmf/010/equpmf8.res
System init for write_restart ...
Generated 0 of 1 mixed pair_coeff terms from geometric mixing rule
