LAMMPS (23 Jun 2022 - Update 1)
# Read restart
read_restart ./pgnpmf/010/equpmf122.res
Reading restart file ...
  restart file = 23 Jun 2022, LAMMPS = 23 Jun 2022
  restoring atom style atomic from restart
  orthogonal box = (1480.1401 1480.1401 1480.1401) to (2519.8599 2519.8599 2519.8599)
  restoring pair style table from restart
  1000 atoms
  read_restart CPU = 0.005 seconds

# Settings

pair_style table spline 9941

pair_coeff 1 1 ./pgnpmf/N20.txt DE_GNP 75.6
pair_coeff 2 2 ./pgnpmf/N100.txt DE_GNP 115.92
pair_coeff 1 2 ./pgnpmf/mixed_potential.txt DE_GNP 95.66

#Neigh_list Calc Frequency

neigh_modify delay 0 every 1 check yes

# Saving Frequency (50 frames)

variable ts_save equal 5000

# Dump
#dump_modify 1 first no sort id
dump 2 all cfg 50000 ./pgnpmf/010/equilibration/trajectory/dumpgen.tens_*.cfg mass type xs ys zs fx fy fz
dump_modify 2 element N20 N100

# thermo_style
thermo_style custom step temp press pe density ke etotal lx ly lz xlo xhi ylo yhi zlo zhi vol dt time cpu tpcpu spcpu cpuremain

# run info
timestep 0.1
thermo 200

# fix

fix 1 all momentum 1000 linear 1 1 1 angular
variable T equal 300
fix 2 all nvt temp 300 370000 100.0

run 100000
Generated 0 of 1 mixed pair_coeff terms from geometric mixing rule
Unused restart file global fix info:
  fix style: npt, fix ID: 5
  update every 1 steps, delay 0 steps, check yes
Step          Temp          Press          PotEng        Density         KinEng         TotEng           Lx             Ly             Lz            Xlo            Xhi            Ylo            Yhi            Zlo            Zhi           Volume           Dt            Time           CPU           T/CPU          S/CPU         CPULeft
88510000   309.17517      0.12224439    -49116725       0.62354094     920.67085     -49115805       1039.7199      1039.7199      1039.7199      1480.1401      2519.8599      1480.1401      2519.8599      1480.1401      2519.8599      1.1239552e+09  0.1            39460000       0              0              0              0
Averages over the last 251 of 501 rows, steps 88560000 to 88610000:
Temp Press PotEng Density KinEng TotEng Lx Ly Lz Xlo Xhi Ylo Yhi Zlo Zhi Volume Dt
276959 -0.432415 -4.87705e+07 0.623541 824736 -4.79457e+07 1039.72 1039.72 1039.72 1480.14 2519.86 1480.14 2519.86 1480.14 2519.86 1.12396e+09 0.1
Loop time of 9.04049 on 4 procs for 100000 steps with 1000 atoms

unfix 2

fix 3 all nvt temp 370000 370000 $(100.0*dt) #iso 1.0 1.0 $(1000.0*dt)
fix 3 all nvt temp 370000 370000 10

run 500000
Generated 0 of 1 mixed pair_coeff terms from geometric mixing rule
Step          Temp          Press          PotEng        Density         KinEng         TotEng           Lx             Ly             Lz            Xlo            Xhi            Ylo            Yhi            Zlo            Zhi           Volume           Dt            Time           CPU           T/CPU          S/CPU         CPULeft
88610000   384146.35      64.345976     -48713452       0.62354094     1143922.2     -47569530       1039.7199      1039.7199      1039.7199      1480.1401      2519.8599      1480.1401      2519.8599      1480.1401      2519.8599      1.1239552e+09  0.1            39470000       0              0              0              0
Averages over the last 1251 of 2501 rows, steps 88860000 to 89110000:
Temp Press PotEng Density KinEng TotEng Lx Ly Lz Xlo Xhi Ylo Yhi Zlo Zhi Volume Dt
370004 -64.2609 -4.75406e+07 0.623541 1.10181e+06 -4.64388e+07 1039.72 1039.72 1039.72 1480.14 2519.86 1480.14 2519.86 1480.14 2519.86 1.12396e+09 0.1
Loop time of 46.653 on 4 procs for 500000 steps with 1000 atoms

unfix 3

fix 4 all nvt temp 370000 300 100.0

run 100000
Generated 0 of 1 mixed pair_coeff terms from geometric mixing rule
Step          Temp          Press          PotEng        Density         KinEng         TotEng           Lx             Ly             Lz            Xlo            Xhi            Ylo            Yhi            Zlo            Zhi           Volume           Dt            Time           CPU           T/CPU          S/CPU         CPULeft
89110000   391028.43     -76.757548     -47259917       0.62354094     1164415.9     -46095501       1039.7199      1039.7199      1039.7199      1480.1401      2519.8599      1480.1401      2519.8599      1480.1401      2519.8599      1.1239552e+09  0.1            39520000       0              0              0              0
Averages over the last 251 of 501 rows, steps 89160000 to 89210000:
Temp Press PotEng Density KinEng TotEng Lx Ly Lz Xlo Xhi Ylo Yhi Zlo Zhi Volume Dt
96202.5 -337.116 -4.73138e+07 0.623541 286475 -4.70273e+07 1039.72 1039.72 1039.72 1480.14 2519.86 1480.14 2519.86 1480.14 2519.86 1.12396e+09 0.1
Loop time of 9.29094 on 4 procs for 100000 steps with 1000 atoms

unfix 4

fix 5 all npt temp 300 300 $(100.0*dt) iso 1.0 1.0 $(1000.0*dt)
fix 5 all npt temp 300 300 10 iso 1.0 1.0 $(1000.0*dt)
fix 5 all npt temp 300 300 10 iso 1.0 1.0 100

run 300000
Generated 0 of 1 mixed pair_coeff terms from geometric mixing rule
Step          Temp          Press          PotEng        Density         KinEng         TotEng           Lx             Ly             Lz            Xlo            Xhi            Ylo            Yhi            Zlo            Zhi           Volume           Dt            Time           CPU           T/CPU          S/CPU         CPULeft
89210000   5060.8398     -443.45132     -47480790       0.62354094     15070.317     -47465719       1039.7199      1039.7199      1039.7199      1480.1401      2519.8599      1480.1401      2519.8599      1480.1401      2519.8599      1.1239552e+09  0.1            39530000       0              0              0              0
Averages over the last 751 of 1501 rows, steps 89360000 to 89510000:
Temp Press PotEng Density KinEng TotEng Lx Ly Lz Xlo Xhi Ylo Yhi Zlo Zhi Volume Dt
312.043 1.07993 -4.85473e+07 0.651133 929.21 -4.85463e+07 1024.82 1024.82 1024.82 1487.59 2512.41 1487.59 2512.41 1487.59 2512.41 1.07633e+09 0.1
Loop time of 32.7767 on 4 procs for 300000 steps with 1000 atoms

# run_style
run_style verlet

# write restart
write_restart ./pgnpmf/010/equpmf123.res
System init for write_restart ...
Generated 0 of 1 mixed pair_coeff terms from geometric mixing rule
