LAMMPS (23 Jun 2022 - Update 1)
# Read restart
read_restart ./pgnpmf/010/equpmf85.res
Reading restart file ...
  restart file = 23 Jun 2022, LAMMPS = 23 Jun 2022
  restoring atom style atomic from restart
  orthogonal box = (1299.1748 1299.1748 1299.1748) to (2700.8252 2700.8252 2700.8252)
  restoring pair style table from restart
  1000 atoms
  read_restart CPU = 0.004 seconds

# Settings

pair_style table spline 9941

pair_coeff 1 1 ./pgnpmf/N20.txt DE_GNP 75.6
pair_coeff 2 2 ./pgnpmf/N100.txt DE_GNP 115.92
pair_coeff 1 2 ./pgnpmf/mixed_potential.txt DE_GNP 95.66

#Neigh_list Calc Frequency

neigh_modify delay 0 every 1 check yes

# Saving Frequency (50 frames)

variable ts_save equal 5000

# Dump
#dump_modify 1 first no sort id
dump 2 all cfg 50000 ./pgnpmf/010/equilibration/trajectory/dumpgen.tens_*.cfg mass type xs ys zs fx fy fz
dump_modify 2 element N20 N100

# thermo_style
thermo_style custom step temp press pe density ke etotal lx ly lz xlo xhi ylo yhi zlo zhi vol dt time cpu tpcpu spcpu cpuremain

# run info
timestep 0.5
thermo 200

# fix

fix 1 all momentum 1000 linear 1 1 1 angular
variable T equal 300
fix 2 all nvt temp 300 370000 100.0

run 100000
Generated 0 of 1 mixed pair_coeff terms from geometric mixing rule
Unused restart file global fix info:
  fix style: npt, fix ID: 5
  update every 1 steps, delay 0 steps, check yes
Step          Temp          Press          PotEng        Density         KinEng         TotEng           Lx             Ly             Lz            Xlo            Xhi            Ylo            Yhi            Zlo            Zhi           Volume           Dt            Time           CPU           T/CPU          S/CPU         CPULeft
59910000   296.0812       0.83009414    -40999204       0.25450416     881.67927     -40998322       1401.6504      1401.6504      1401.6504      1299.1748      2700.8252      1299.1748      2700.8252      1299.1748      2700.8252      2.7537157e+09  0.5            30160000       0              0              0              0
Averages over the last 251 of 501 rows, steps 59960000 to 60010000:
Temp Press PotEng Density KinEng TotEng Lx Ly Lz Xlo Xhi Ylo Yhi Zlo Zhi Volume Dt
277086 3.89211 -4.01038e+07 0.254504 825114 -3.92787e+07 1401.65 1401.65 1401.65 1299.17 2700.83 1299.17 2700.83 1299.17 2700.83 2.75372e+09 0.5
Loop time of 6.78341 on 4 procs for 100000 steps with 1000 atoms

unfix 2

fix 3 all nvt temp 370000 370000 $(100.0*dt) #iso 1.0 1.0 $(1000.0*dt)
fix 3 all nvt temp 370000 370000 50

run 200000
Generated 0 of 1 mixed pair_coeff terms from geometric mixing rule
Step          Temp          Press          PotEng        Density         KinEng         TotEng           Lx             Ly             Lz            Xlo            Xhi            Ylo            Yhi            Zlo            Zhi           Volume           Dt            Time           CPU           T/CPU          S/CPU         CPULeft
60010000   360146.64      11.106572     -40045389       0.25450416     1072455.2     -38972934       1401.6504      1401.6504      1401.6504      1299.1748      2700.8252      1299.1748      2700.8252      1299.1748      2700.8252      2.7537157e+09  0.5            30210000       0              0              0              0
Averages over the last 501 of 1001 rows, steps 60110000 to 60210000:
Temp Press PotEng Density KinEng TotEng Lx Ly Lz Xlo Xhi Ylo Yhi Zlo Zhi Volume Dt
370126 10.4213 -3.99232e+07 0.254504 1.10217e+06 -3.8821e+07 1401.65 1401.65 1401.65 1299.17 2700.83 1299.17 2700.83 1299.17 2700.83 2.75372e+09 0.5
Loop time of 13.6136 on 4 procs for 200000 steps with 1000 atoms

unfix 3

fix 4 all nvt temp 370000 300 100.0

run 100000
Generated 0 of 1 mixed pair_coeff terms from geometric mixing rule
Step          Temp          Press          PotEng        Density         KinEng         TotEng           Lx             Ly             Lz            Xlo            Xhi            Ylo            Yhi            Zlo            Zhi           Volume           Dt            Time           CPU           T/CPU          S/CPU         CPULeft
60210000   364642.72      11.716645     -39895239       0.25450416     1085843.8     -38809395       1401.6504      1401.6504      1401.6504      1299.1748      2700.8252      1299.1748      2700.8252      1299.1748      2700.8252      2.7537157e+09  0.5            30310000       0              0              0              0
Averages over the last 251 of 501 rows, steps 60260000 to 60310000:
Temp Press PotEng Density KinEng TotEng Lx Ly Lz Xlo Xhi Ylo Yhi Zlo Zhi Volume Dt
93153.2 -14.7378 -4.07456e+07 0.254504 277394 -4.04682e+07 1401.65 1401.65 1401.65 1299.17 2700.83 1299.17 2700.83 1299.17 2700.83 2.75372e+09 0.5
Loop time of 6.69511 on 4 procs for 100000 steps with 1000 atoms

unfix 4

fix 5 all npt temp 300 300 $(100.0*dt) iso 1.0 1.0 $(1000.0*dt)
fix 5 all npt temp 300 300 50 iso 1.0 1.0 $(1000.0*dt)
fix 5 all npt temp 300 300 50 iso 1.0 1.0 500

run 300000
Generated 0 of 1 mixed pair_coeff terms from geometric mixing rule
Step          Temp          Press          PotEng        Density         KinEng         TotEng           Lx             Ly             Lz            Xlo            Xhi            Ylo            Yhi            Zlo            Zhi           Volume           Dt            Time           CPU           T/CPU          S/CPU         CPULeft
60310000   1344.4374     -19.209953     -41128461       0.25450416     4003.5049     -41124457       1401.6504      1401.6504      1401.6504      1299.1748      2700.8252      1299.1748      2700.8252      1299.1748      2700.8252      2.7537157e+09  0.5            30360000       0              0              0              0
Averages over the last 751 of 1501 rows, steps 60460000 to 60610000:
Temp Press PotEng Density KinEng TotEng Lx Ly Lz Xlo Xhi Ylo Yhi Zlo Zhi Volume Dt
303.144 0.991482 -4.13692e+07 0.256915 902.712 -4.13683e+07 1397.25 1397.25 1397.25 1301.37 2698.63 1301.37 2698.63 1301.37 2698.63 2.72787e+09 0.5
Loop time of 24.2881 on 4 procs for 300000 steps with 1000 atoms

# run_style
run_style verlet

# write restart
write_restart ./pgnpmf/010/equpmf86.res
System init for write_restart ...
Generated 0 of 1 mixed pair_coeff terms from geometric mixing rule
