LAMMPS (23 Jun 2022 - Update 1)
# Read restart
read_restart ./pgnpmf/010/equpmf19.res
Reading restart file ...
  restart file = 23 Jun 2022, LAMMPS = 23 Jun 2022
  restoring atom style atomic from restart
  orthogonal box = (596.32144 596.32144 596.32144) to (3403.6786 3403.6786 3403.6786)
  restoring pair style table from restart
  1000 atoms
  read_restart CPU = 0.005 seconds

# Settings

pair_style table spline 9941

pair_coeff 1 1 ./pgnpmf/N20.txt DE_GNP 75.6
pair_coeff 2 2 ./pgnpmf/N100.txt DE_GNP 115.92
pair_coeff 1 2 ./pgnpmf/mixed_potential.txt DE_GNP 95.66

#Neigh_list Calc Frequency

neigh_modify delay 0 every 1 check yes

# Saving Frequency (50 frames)

variable ts_save equal 5000

# Dump
#dump_modify 1 first no sort id
dump 2 all cfg 50000 ./pgnpmf/010/equilibration/trajectory/dumpgen.tens_*.cfg mass type xs ys zs fx fy fz
dump_modify 2 element N20 N100

# thermo_style
thermo_style custom step temp press pe density ke etotal lx ly lz xlo xhi ylo yhi zlo zhi vol dt time cpu tpcpu spcpu cpuremain

# run info
timestep 0.5
thermo 200

# fix

fix 1 all momentum 1000 linear 1 1 1 angular
variable T equal 300
fix 2 all nvt temp 300 370000 100.0

run 100000
Generated 0 of 1 mixed pair_coeff terms from geometric mixing rule
Unused restart file global fix info:
  fix style: npt, fix ID: 5
  update every 1 steps, delay 0 steps, check yes
Step          Temp          Press          PotEng        Density         KinEng         TotEng           Lx             Ly             Lz            Xlo            Xhi            Ylo            Yhi            Zlo            Zhi           Volume           Dt            Time           CPU           T/CPU          S/CPU         CPULeft
13710000   308.70251      1.0618633     -27319320       0.03167532     919.26337     -27318400       2807.3571      2807.3571      2807.3571      596.32144      3403.6786      596.32144      3403.6786      596.32144      3403.6786      2.2125495e+10  0.5            7060000        0              0              0              0
Averages over the last 251 of 501 rows, steps 13760000 to 13810000:
Temp Press PotEng Density KinEng TotEng Lx Ly Lz Xlo Xhi Ylo Yhi Zlo Zhi Volume Dt
277254 0.990173 -2.67037e+07 0.0316753 825614 -2.58781e+07 2807.36 2807.36 2807.36 596.321 3403.68 596.321 3403.68 596.321 3403.68 2.21255e+10 0.5
Loop time of 10.4082 on 4 procs for 100000 steps with 1000 atoms

unfix 2

fix 3 all nvt temp 370000 370000 $(100.0*dt) #iso 1.0 1.0 $(1000.0*dt)
fix 3 all nvt temp 370000 370000 50

run 200000
Generated 0 of 1 mixed pair_coeff terms from geometric mixing rule
Step          Temp          Press          PotEng        Density         KinEng         TotEng           Lx             Ly             Lz            Xlo            Xhi            Ylo            Yhi            Zlo            Zhi           Volume           Dt            Time           CPU           T/CPU          S/CPU         CPULeft
13810000   349551.08     -1.2849605     -25921027       0.03167532     1040903.4     -24880124       2807.3571      2807.3571      2807.3571      596.32144      3403.6786      596.32144      3403.6786      596.32144      3403.6786      2.2125495e+10  0.5            7110000        0              0              0              0
Averages over the last 501 of 1001 rows, steps 13910000 to 14010000:
Temp Press PotEng Density KinEng TotEng Lx Ly Lz Xlo Xhi Ylo Yhi Zlo Zhi Volume Dt
370234 0.549266 -2.4809e+07 0.0316753 1.10249e+06 -2.37065e+07 2807.36 2807.36 2807.36 596.321 3403.68 596.321 3403.68 596.321 3403.68 2.21255e+10 0.5
Loop time of 20.6524 on 4 procs for 200000 steps with 1000 atoms

unfix 3

fix 4 all nvt temp 370000 300 100.0

run 100000
Generated 0 of 1 mixed pair_coeff terms from geometric mixing rule
Step          Temp          Press          PotEng        Density         KinEng         TotEng           Lx             Ly             Lz            Xlo            Xhi            Ylo            Yhi            Zlo            Zhi           Volume           Dt            Time           CPU           T/CPU          S/CPU         CPULeft
14010000   376763.09      0.59403927    -24912175       0.03167532     1121936.2     -23790239       2807.3571      2807.3571      2807.3571      596.32144      3403.6786      596.32144      3403.6786      596.32144      3403.6786      2.2125495e+10  0.5            7210000        0              0              0              0
Averages over the last 251 of 501 rows, steps 14060000 to 14110000:
Temp Press PotEng Density KinEng TotEng Lx Ly Lz Xlo Xhi Ylo Yhi Zlo Zhi Volume Dt
93068.3 -4.22004 -2.6162e+07 0.0316753 277141 -2.58848e+07 2807.36 2807.36 2807.36 596.321 3403.68 596.321 3403.68 596.321 3403.68 2.21255e+10 0.5
Loop time of 10.2735 on 4 procs for 100000 steps with 1000 atoms

unfix 4

fix 5 all npt temp 300 300 $(100.0*dt) iso 1.0 1.0 $(1000.0*dt)
fix 5 all npt temp 300 300 50 iso 1.0 1.0 $(1000.0*dt)
fix 5 all npt temp 300 300 50 iso 1.0 1.0 500

run 300000
Generated 0 of 1 mixed pair_coeff terms from geometric mixing rule
Step          Temp          Press          PotEng        Density         KinEng         TotEng           Lx             Ly             Lz            Xlo            Xhi            Ylo            Yhi            Zlo            Zhi           Volume           Dt            Time           CPU           T/CPU          S/CPU         CPULeft
14110000   1353.5374     -4.7276603     -26733769       0.03167532     4030.6033     -26729738       2807.3571      2807.3571      2807.3571      596.32144      3403.6786      596.32144      3403.6786      596.32144      3403.6786      2.2125495e+10  0.5            7260000        0              0              0              0
Averages over the last 751 of 1501 rows, steps 14260000 to 14410000:
Temp Press PotEng Density KinEng TotEng Lx Ly Lz Xlo Xhi Ylo Yhi Zlo Zhi Volume Dt
309.079 0.998212 -2.73508e+07 0.0331238 920.384 -2.73498e+07 2765.84 2765.84 2765.84 617.08 3382.92 617.08 3382.92 617.08 3382.92 2.11585e+10 0.5
Loop time of 37.8779 on 4 procs for 300000 steps with 1000 atoms

# run_style
run_style verlet

# write restart
write_restart ./pgnpmf/010/equpmf20.res
System init for write_restart ...
Generated 0 of 1 mixed pair_coeff terms from geometric mixing rule
