LAMMPS (23 Jun 2022 - Update 1)
# Read restart
read_restart ./pgnpmf/010/equpmf83.res
Reading restart file ...
  restart file = 23 Jun 2022, LAMMPS = 23 Jun 2022
  restoring atom style atomic from restart
  orthogonal box = (1293.8365 1293.8365 1293.8365) to (2706.1635 2706.1635 2706.1635)
  restoring pair style table from restart
  1000 atoms
  read_restart CPU = 0.005 seconds

# Settings

pair_style table spline 9941

pair_coeff 1 1 ./pgnpmf/N20.txt DE_GNP 75.6
pair_coeff 2 2 ./pgnpmf/N100.txt DE_GNP 115.92
pair_coeff 1 2 ./pgnpmf/mixed_potential.txt DE_GNP 95.66

#Neigh_list Calc Frequency

neigh_modify delay 0 every 1 check yes

# Saving Frequency (50 frames)

variable ts_save equal 5000

# Dump
#dump_modify 1 first no sort id
dump 2 all cfg 50000 ./pgnpmf/010/equilibration/trajectory/dumpgen.tens_*.cfg mass type xs ys zs fx fy fz
dump_modify 2 element N20 N100

# thermo_style
thermo_style custom step temp press pe density ke etotal lx ly lz xlo xhi ylo yhi zlo zhi vol dt time cpu tpcpu spcpu cpuremain

# run info
timestep 0.5
thermo 200

# fix

fix 1 all momentum 1000 linear 1 1 1 angular
variable T equal 300
fix 2 all nvt temp 300 370000 100.0

run 100000
Generated 0 of 1 mixed pair_coeff terms from geometric mixing rule
Unused restart file global fix info:
  fix style: npt, fix ID: 5
  update every 1 steps, delay 0 steps, check yes
Step          Temp          Press          PotEng        Density         KinEng         TotEng           Lx             Ly             Lz            Xlo            Xhi            Ylo            Yhi            Zlo            Zhi           Volume           Dt            Time           CPU           T/CPU          S/CPU         CPULeft
58510000   292.03413      1.3995872     -39987536       0.24877581     869.62776     -39986666       1412.3271      1412.3271      1412.3271      1293.8365      2706.1635      1293.8365      2706.1635      1293.8365      2706.1635      2.8171233e+09  0.5            29460000       0              0              0              0
Averages over the last 251 of 501 rows, steps 58560000 to 58610000:
Temp Press PotEng Density KinEng TotEng Lx Ly Lz Xlo Xhi Ylo Yhi Zlo Zhi Volume Dt
277762 4.7828 -3.91935e+07 0.248776 827129 -3.83664e+07 1412.33 1412.33 1412.33 1293.84 2706.16 1293.84 2706.16 1293.84 2706.16 2.81712e+09 0.5
Loop time of 7.24962 on 4 procs for 100000 steps with 1000 atoms

unfix 2

fix 3 all nvt temp 370000 370000 $(100.0*dt) #iso 1.0 1.0 $(1000.0*dt)
fix 3 all nvt temp 370000 370000 50

run 200000
Generated 0 of 1 mixed pair_coeff terms from geometric mixing rule
Step          Temp          Press          PotEng        Density         KinEng         TotEng           Lx             Ly             Lz            Xlo            Xhi            Ylo            Yhi            Zlo            Zhi           Volume           Dt            Time           CPU           T/CPU          S/CPU         CPULeft
58610000   374305.42     -10.581698     -38917423       0.24877581     1114617.6     -37802806       1412.3271      1412.3271      1412.3271      1293.8365      2706.1635      1293.8365      2706.1635      1293.8365      2706.1635      2.8171233e+09  0.5            29510000       0              0              0              0
Averages over the last 501 of 1001 rows, steps 58710000 to 58810000:
Temp Press PotEng Density KinEng TotEng Lx Ly Lz Xlo Xhi Ylo Yhi Zlo Zhi Volume Dt
370064 9.23288 -3.88765e+07 0.248776 1.10199e+06 -3.77745e+07 1412.33 1412.33 1412.33 1293.84 2706.16 1293.84 2706.16 1293.84 2706.16 2.81712e+09 0.5
Loop time of 14.4628 on 4 procs for 200000 steps with 1000 atoms

unfix 3

fix 4 all nvt temp 370000 300 100.0

run 100000
Generated 0 of 1 mixed pair_coeff terms from geometric mixing rule
Step          Temp          Press          PotEng        Density         KinEng         TotEng           Lx             Ly             Lz            Xlo            Xhi            Ylo            Yhi            Zlo            Zhi           Volume           Dt            Time           CPU           T/CPU          S/CPU         CPULeft
58810000   369430.44      2.4373541     -39130095       0.24877581     1100100.8     -38029995       1412.3271      1412.3271      1412.3271      1293.8365      2706.1635      1293.8365      2706.1635      1293.8365      2706.1635      2.8171233e+09  0.5            29610000       0              0              0              0
Averages over the last 251 of 501 rows, steps 58860000 to 58910000:
Temp Press PotEng Density KinEng TotEng Lx Ly Lz Xlo Xhi Ylo Yhi Zlo Zhi Volume Dt
93112.6 -6.59607 -3.99674e+07 0.248776 277274 -3.96901e+07 1412.33 1412.33 1412.33 1293.84 2706.16 1293.84 2706.16 1293.84 2706.16 2.81712e+09 0.5
Loop time of 7.1987 on 4 procs for 100000 steps with 1000 atoms

unfix 4

fix 5 all npt temp 300 300 $(100.0*dt) iso 1.0 1.0 $(1000.0*dt)
fix 5 all npt temp 300 300 50 iso 1.0 1.0 $(1000.0*dt)
fix 5 all npt temp 300 300 50 iso 1.0 1.0 500

run 300000
Generated 0 of 1 mixed pair_coeff terms from geometric mixing rule
Step          Temp          Press          PotEng        Density         KinEng         TotEng           Lx             Ly             Lz            Xlo            Xhi            Ylo            Yhi            Zlo            Zhi           Volume           Dt            Time           CPU           T/CPU          S/CPU         CPULeft
58910000   1352.0381     -16.043805     -40258514       0.24877581     4026.1387     -40254488       1412.3271      1412.3271      1412.3271      1293.8365      2706.1635      1293.8365      2706.1635      1293.8365      2706.1635      2.8171233e+09  0.5            29660000       0              0              0              0
Averages over the last 751 of 1501 rows, steps 59060000 to 59210000:
Temp Press PotEng Density KinEng TotEng Lx Ly Lz Xlo Xhi Ylo Yhi Zlo Zhi Volume Dt
305.192 0.998693 -4.05798e+07 0.251069 908.809 -4.05789e+07 1408.01 1408.01 1408.01 1295.99 2704.01 1295.99 2704.01 1295.99 2704.01 2.79139e+09 0.5
Loop time of 25.6934 on 4 procs for 300000 steps with 1000 atoms

# run_style
run_style verlet

# write restart
write_restart ./pgnpmf/010/equpmf84.res
System init for write_restart ...
Generated 0 of 1 mixed pair_coeff terms from geometric mixing rule
