LAMMPS (23 Jun 2022 - Update 1)
# Read restart
read_restart ./pgnpmf/010/equpmf106.res
Reading restart file ...
  restart file = 23 Jun 2022, LAMMPS = 23 Jun 2022
  restoring atom style atomic from restart
  orthogonal box = (1368.2945 1368.2945 1368.2945) to (2631.7055 2631.7055 2631.7055)
  restoring pair style table from restart
  1000 atoms
  read_restart CPU = 0.004 seconds

# Settings

pair_style table spline 9941

pair_coeff 1 1 ./pgnpmf/N20.txt DE_GNP 75.6
pair_coeff 2 2 ./pgnpmf/N100.txt DE_GNP 115.92
pair_coeff 1 2 ./pgnpmf/mixed_potential.txt DE_GNP 95.66

#Neigh_list Calc Frequency

neigh_modify delay 0 every 1 check yes

# Saving Frequency (50 frames)

variable ts_save equal 5000

# Dump
#dump_modify 1 first no sort id
dump 2 all cfg 50000 ./pgnpmf/010/equilibration/trajectory/dumpgen.tens_*.cfg mass type xs ys zs fx fy fz
dump_modify 2 element N20 N100

# thermo_style
thermo_style custom step temp press pe density ke etotal lx ly lz xlo xhi ylo yhi zlo zhi vol dt time cpu tpcpu spcpu cpuremain

# run info
timestep 0.5
thermo 200

# fix

fix 1 all momentum 1000 linear 1 1 1 angular
variable T equal 300
fix 2 all nvt temp 300 370000 100.0

run 100000
Generated 0 of 1 mixed pair_coeff terms from geometric mixing rule
Unused restart file global fix info:
  fix style: npt, fix ID: 5
  update every 1 steps, delay 0 steps, check yes
Step          Temp          Press          PotEng        Density         KinEng         TotEng           Lx             Ly             Lz            Xlo            Xhi            Ylo            Yhi            Zlo            Zhi           Volume           Dt            Time           CPU           T/CPU          S/CPU         CPULeft
74610000   304.28217      1.5001295     -45262763       0.34752021     906.10033     -45261857       1263.411       1263.411       1263.411       1368.2945      2631.7055      1368.2945      2631.7055      1368.2945      2631.7055      2.0166658e+09  0.5            37510000       0              0              0              0
Averages over the last 251 of 501 rows, steps 74660000 to 74710000:
Temp Press PotEng Density KinEng TotEng Lx Ly Lz Xlo Xhi Ylo Yhi Zlo Zhi Volume Dt
277514 -3.70136 -4.51665e+07 0.34752 826388 -4.43401e+07 1263.41 1263.41 1263.41 1368.29 2631.71 1368.29 2631.71 1368.29 2631.71 2.01667e+09 0.5
Loop time of 10.1023 on 4 procs for 100000 steps with 1000 atoms

unfix 2

fix 3 all nvt temp 370000 370000 $(100.0*dt) #iso 1.0 1.0 $(1000.0*dt)
fix 3 all nvt temp 370000 370000 50

run 200000
Generated 0 of 1 mixed pair_coeff terms from geometric mixing rule
Step          Temp          Press          PotEng        Density         KinEng         TotEng           Lx             Ly             Lz            Xlo            Xhi            Ylo            Yhi            Zlo            Zhi           Volume           Dt            Time           CPU           T/CPU          S/CPU         CPULeft
74710000   376647.6       22.264263     -45151075       0.34752021     1121592.2     -44029482       1263.411       1263.411       1263.411       1368.2945      2631.7055      1368.2945      2631.7055      1368.2945      2631.7055      2.0166658e+09  0.5            37560000       0              0              0              0
Averages over the last 501 of 1001 rows, steps 74810000 to 74910000:
Temp Press PotEng Density KinEng TotEng Lx Ly Lz Xlo Xhi Ylo Yhi Zlo Zhi Volume Dt
369771 5.96342 -4.43707e+07 0.34752 1.10112e+06 -4.32696e+07 1263.41 1263.41 1263.41 1368.29 2631.71 1368.29 2631.71 1368.29 2631.71 2.01667e+09 0.5
Loop time of 20.5448 on 4 procs for 200000 steps with 1000 atoms

unfix 3

fix 4 all nvt temp 370000 300 100.0

run 100000
Generated 0 of 1 mixed pair_coeff terms from geometric mixing rule
Step          Temp          Press          PotEng        Density         KinEng         TotEng           Lx             Ly             Lz            Xlo            Xhi            Ylo            Yhi            Zlo            Zhi           Volume           Dt            Time           CPU           T/CPU          S/CPU         CPULeft
74910000   361290.74      13.130024     -44511038       0.34752021     1075862.1     -43435176       1263.411       1263.411       1263.411       1368.2945      2631.7055      1368.2945      2631.7055      1368.2945      2631.7055      2.0166658e+09  0.5            37660000       0              0              0              0
Averages over the last 251 of 501 rows, steps 74960000 to 75010000:
Temp Press PotEng Density KinEng TotEng Lx Ly Lz Xlo Xhi Ylo Yhi Zlo Zhi Volume Dt
92909.5 -23.5521 -4.5066e+07 0.34752 276669 -4.47893e+07 1263.41 1263.41 1263.41 1368.29 2631.71 1368.29 2631.71 1368.29 2631.71 2.01667e+09 0.5
Loop time of 10.1953 on 4 procs for 100000 steps with 1000 atoms

unfix 4

fix 5 all npt temp 300 300 $(100.0*dt) iso 1.0 1.0 $(1000.0*dt)
fix 5 all npt temp 300 300 50 iso 1.0 1.0 $(1000.0*dt)
fix 5 all npt temp 300 300 50 iso 1.0 1.0 500

run 300000
Generated 0 of 1 mixed pair_coeff terms from geometric mixing rule
Step          Temp          Press          PotEng        Density         KinEng         TotEng           Lx             Ly             Lz            Xlo            Xhi            Ylo            Yhi            Zlo            Zhi           Volume           Dt            Time           CPU           T/CPU          S/CPU         CPULeft
75010000   1368.9533     -29.253939     -44935618       0.34752021     4076.5092     -44931541       1263.411       1263.411       1263.411       1368.2945      2631.7055      1368.2945      2631.7055      1368.2945      2631.7055      2.0166658e+09  0.5            37710000       0              0              0              0
Averages over the last 751 of 1501 rows, steps 75160000 to 75310000:
Temp Press PotEng Density KinEng TotEng Lx Ly Lz Xlo Xhi Ylo Yhi Zlo Zhi Volume Dt
302.401 0.974655 -4.49994e+07 0.350628 900.498 -4.49985e+07 1259.67 1259.67 1259.67 1370.17 2629.83 1370.17 2629.83 1370.17 2629.83 1.99879e+09 0.5
Loop time of 35.7972 on 4 procs for 300000 steps with 1000 atoms

# run_style
run_style verlet

# write restart
write_restart ./pgnpmf/010/equpmf107.res
System init for write_restart ...
Generated 0 of 1 mixed pair_coeff terms from geometric mixing rule
