LAMMPS (23 Jun 2022 - Update 1)
# Read restart
read_restart ./pgnpmf/010/equpmf79.res
Reading restart file ...
  restart file = 23 Jun 2022, LAMMPS = 23 Jun 2022
  restoring atom style atomic from restart
  orthogonal box = (1283.1827 1283.1827 1283.1827) to (2716.8173 2716.8173 2716.8173)
  restoring pair style table from restart
  1000 atoms
  read_restart CPU = 0.005 seconds

# Settings

pair_style table spline 9941

pair_coeff 1 1 ./pgnpmf/N20.txt DE_GNP 75.6
pair_coeff 2 2 ./pgnpmf/N100.txt DE_GNP 115.92
pair_coeff 1 2 ./pgnpmf/mixed_potential.txt DE_GNP 95.66

#Neigh_list Calc Frequency

neigh_modify delay 0 every 1 check yes

# Saving Frequency (50 frames)

variable ts_save equal 5000

# Dump
#dump_modify 1 first no sort id
dump 2 all cfg 50000 ./pgnpmf/010/equilibration/trajectory/dumpgen.tens_*.cfg mass type xs ys zs fx fy fz
dump_modify 2 element N20 N100

# thermo_style
thermo_style custom step temp press pe density ke etotal lx ly lz xlo xhi ylo yhi zlo zhi vol dt time cpu tpcpu spcpu cpuremain

# run info
timestep 0.5
thermo 200

# fix

fix 1 all momentum 1000 linear 1 1 1 angular
variable T equal 300
fix 2 all nvt temp 300 370000 100.0

run 100000
Generated 0 of 1 mixed pair_coeff terms from geometric mixing rule
Unused restart file global fix info:
  fix style: npt, fix ID: 5
  update every 1 steps, delay 0 steps, check yes
Step          Temp          Press          PotEng        Density         KinEng         TotEng           Lx             Ly             Lz            Xlo            Xhi            Ylo            Yhi            Zlo            Zhi           Volume           Dt            Time           CPU           T/CPU          S/CPU         CPULeft
55710000   298.27927      0.82878736    -37468690       0.23784752     888.22473     -37467802       1433.6345      1433.6345      1433.6345      1283.1827      2716.8173      1283.1827      2716.8173      1283.1827      2716.8173      2.9465605e+09  0.5            28060000       0              0              0              0
Averages over the last 251 of 501 rows, steps 55760000 to 55810000:
Temp Press PotEng Density KinEng TotEng Lx Ly Lz Xlo Xhi Ylo Yhi Zlo Zhi Volume Dt
277691 10.3779 -3.69412e+07 0.237848 826918 -3.61143e+07 1433.63 1433.63 1433.63 1283.18 2716.82 1283.18 2716.82 1283.18 2716.82 2.94656e+09 0.5
Loop time of 6.56644 on 4 procs for 100000 steps with 1000 atoms

unfix 2

fix 3 all nvt temp 370000 370000 $(100.0*dt) #iso 1.0 1.0 $(1000.0*dt)
fix 3 all nvt temp 370000 370000 50

run 200000
Generated 0 of 1 mixed pair_coeff terms from geometric mixing rule
Step          Temp          Press          PotEng        Density         KinEng         TotEng           Lx             Ly             Lz            Xlo            Xhi            Ylo            Yhi            Zlo            Zhi           Volume           Dt            Time           CPU           T/CPU          S/CPU         CPULeft
55810000   368548.82      13.613111     -36874436       0.23784752     1097475.5     -35776961       1433.6345      1433.6345      1433.6345      1283.1827      2716.8173      1283.1827      2716.8173      1283.1827      2716.8173      2.9465605e+09  0.5            28110000       0              0              0              0
Averages over the last 501 of 1001 rows, steps 55910000 to 56010000:
Temp Press PotEng Density KinEng TotEng Lx Ly Lz Xlo Xhi Ylo Yhi Zlo Zhi Volume Dt
369951 12.2322 -3.69572e+07 0.237848 1.10165e+06 -3.58556e+07 1433.63 1433.63 1433.63 1283.18 2716.82 1283.18 2716.82 1283.18 2716.82 2.94656e+09 0.5
Loop time of 13.2276 on 4 procs for 200000 steps with 1000 atoms

unfix 3

fix 4 all nvt temp 370000 300 100.0

run 100000
Generated 0 of 1 mixed pair_coeff terms from geometric mixing rule
Step          Temp          Press          PotEng        Density         KinEng         TotEng           Lx             Ly             Lz            Xlo            Xhi            Ylo            Yhi            Zlo            Zhi           Volume           Dt            Time           CPU           T/CPU          S/CPU         CPULeft
56010000   377202.85      4.6845581     -37104829       0.23784752     1123245.7     -35981583       1433.6345      1433.6345      1433.6345      1283.1827      2716.8173      1283.1827      2716.8173      1283.1827      2716.8173      2.9465605e+09  0.5            28210000       0              0              0              0
Averages over the last 251 of 501 rows, steps 56060000 to 56110000:
Temp Press PotEng Density KinEng TotEng Lx Ly Lz Xlo Xhi Ylo Yhi Zlo Zhi Volume Dt
92895.3 -4.03654 -3.76468e+07 0.237848 276626 -3.73702e+07 1433.63 1433.63 1433.63 1283.18 2716.82 1283.18 2716.82 1283.18 2716.82 2.94656e+09 0.5
Loop time of 6.55638 on 4 procs for 100000 steps with 1000 atoms

unfix 4

fix 5 all npt temp 300 300 $(100.0*dt) iso 1.0 1.0 $(1000.0*dt)
fix 5 all npt temp 300 300 50 iso 1.0 1.0 $(1000.0*dt)
fix 5 all npt temp 300 300 50 iso 1.0 1.0 500

run 300000
Generated 0 of 1 mixed pair_coeff terms from geometric mixing rule
Step          Temp          Press          PotEng        Density         KinEng         TotEng           Lx             Ly             Lz            Xlo            Xhi            Ylo            Yhi            Zlo            Zhi           Volume           Dt            Time           CPU           T/CPU          S/CPU         CPULeft
56110000   1328.182      -18.562572     -37896599       0.23784752     3955.0993     -37892644       1433.6345      1433.6345      1433.6345      1283.1827      2716.8173      1283.1827      2716.8173      1283.1827      2716.8173      2.9465605e+09  0.5            28260000       0              0              0              0
Averages over the last 751 of 1501 rows, steps 56260000 to 56410000:
Temp Press PotEng Density KinEng TotEng Lx Ly Lz Xlo Xhi Ylo Yhi Zlo Zhi Volume Dt
304.954 1.00694 -3.81446e+07 0.240196 908.1 -3.81437e+07 1428.95 1428.95 1428.95 1285.53 2714.47 1285.53 2714.47 1285.53 2714.47 2.91776e+09 0.5
Loop time of 23.3602 on 4 procs for 300000 steps with 1000 atoms

# run_style
run_style verlet

# write restart
write_restart ./pgnpmf/010/equpmf80.res
System init for write_restart ...
Generated 0 of 1 mixed pair_coeff terms from geometric mixing rule
