LAMMPS (23 Jun 2022 - Update 1)
# Read restart
read_restart ./pgnpmf/010/equpmf39.res
Reading restart file ...
  restart file = 23 Jun 2022, LAMMPS = 23 Jun 2022
  restoring atom style atomic from restart
  orthogonal box = (980.47218 980.47218 980.47218) to (3019.5278 3019.5278 3019.5278)
  restoring pair style table from restart
  1000 atoms
  read_restart CPU = 0.004 seconds

# Settings

pair_style table spline 9941

pair_coeff 1 1 ./pgnpmf/N20.txt DE_GNP 75.6
pair_coeff 2 2 ./pgnpmf/N100.txt DE_GNP 115.92
pair_coeff 1 2 ./pgnpmf/mixed_potential.txt DE_GNP 95.66

#Neigh_list Calc Frequency

neigh_modify delay 0 every 1 check yes

# Saving Frequency (50 frames)

variable ts_save equal 5000

# Dump
#dump_modify 1 first no sort id
dump 2 all cfg 50000 ./pgnpmf/010/equilibration/trajectory/dumpgen.tens_*.cfg mass type xs ys zs fx fy fz
dump_modify 2 element N20 N100

# thermo_style
thermo_style custom step temp press pe density ke etotal lx ly lz xlo xhi ylo yhi zlo zhi vol dt time cpu tpcpu spcpu cpuremain

# run info
timestep 0.5
thermo 200

# fix

fix 1 all momentum 1000 linear 1 1 1 angular
variable T equal 300
fix 2 all nvt temp 300 370000 100.0

run 100000
Generated 0 of 1 mixed pair_coeff terms from geometric mixing rule
Unused restart file global fix info:
  fix style: npt, fix ID: 5
  update every 1 steps, delay 0 steps, check yes
Step          Temp          Press          PotEng        Density         KinEng         TotEng           Lx             Ly             Lz            Xlo            Xhi            Ylo            Yhi            Zlo            Zhi           Volume           Dt            Time           CPU           T/CPU          S/CPU         CPULeft
27710000   305.15821      1.0965957     -26774712       0.082665969    908.70905     -26773803       2039.0556      2039.0556      2039.0556      980.47218      3019.5278      980.47218      3019.5278      980.47218      3019.5278      8.4778793e+09  0.5            14060000       0              0              0              0
Averages over the last 251 of 501 rows, steps 27760000 to 27810000:
Temp Press PotEng Density KinEng TotEng Lx Ly Lz Xlo Xhi Ylo Yhi Zlo Zhi Volume Dt
277521 2.99582 -2.62641e+07 0.082666 826411 -2.54377e+07 2039.06 2039.06 2039.06 980.472 3019.53 980.472 3019.53 980.472 3019.53 8.47788e+09 0.5
Loop time of 9.35135 on 4 procs for 100000 steps with 1000 atoms

unfix 2

fix 3 all nvt temp 370000 370000 $(100.0*dt) #iso 1.0 1.0 $(1000.0*dt)
fix 3 all nvt temp 370000 370000 50

run 200000
Generated 0 of 1 mixed pair_coeff terms from geometric mixing rule
Step          Temp          Press          PotEng        Density         KinEng         TotEng           Lx             Ly             Lz            Xlo            Xhi            Ylo            Yhi            Zlo            Zhi           Volume           Dt            Time           CPU           T/CPU          S/CPU         CPULeft
27810000   357594.96     -3.7095697     -25791027       0.082665969    1064856.7     -24726170       2039.0556      2039.0556      2039.0556      980.47218      3019.5278      980.47218      3019.5278      980.47218      3019.5278      8.4778793e+09  0.5            14110000       0              0              0              0
Averages over the last 501 of 1001 rows, steps 27910000 to 28010000:
Temp Press PotEng Density KinEng TotEng Lx Ly Lz Xlo Xhi Ylo Yhi Zlo Zhi Volume Dt
370019 1.6253 -2.42677e+07 0.082666 1.10185e+06 -2.31658e+07 2039.06 2039.06 2039.06 980.472 3019.53 980.472 3019.53 980.472 3019.53 8.47788e+09 0.5
Loop time of 18.905 on 4 procs for 200000 steps with 1000 atoms

unfix 3

fix 4 all nvt temp 370000 300 100.0

run 100000
Generated 0 of 1 mixed pair_coeff terms from geometric mixing rule
Step          Temp          Press          PotEng        Density         KinEng         TotEng           Lx             Ly             Lz            Xlo            Xhi            Ylo            Yhi            Zlo            Zhi           Volume           Dt            Time           CPU           T/CPU          S/CPU         CPULeft
28010000   365250.61     -1.1732362     -24222974       0.082665969    1087654       -23135320       2039.0556      2039.0556      2039.0556      980.47218      3019.5278      980.47218      3019.5278      980.47218      3019.5278      8.4778793e+09  0.5            14210000       0              0              0              0
Averages over the last 251 of 501 rows, steps 28060000 to 28110000:
Temp Press PotEng Density KinEng TotEng Lx Ly Lz Xlo Xhi Ylo Yhi Zlo Zhi Volume Dt
93247.2 -7.54353 -2.53697e+07 0.082666 277674 -2.5092e+07 2039.06 2039.06 2039.06 980.472 3019.53 980.472 3019.53 980.472 3019.53 8.47788e+09 0.5
Loop time of 9.28467 on 4 procs for 100000 steps with 1000 atoms

unfix 4

fix 5 all npt temp 300 300 $(100.0*dt) iso 1.0 1.0 $(1000.0*dt)
fix 5 all npt temp 300 300 50 iso 1.0 1.0 $(1000.0*dt)
fix 5 all npt temp 300 300 50 iso 1.0 1.0 500

run 300000
Generated 0 of 1 mixed pair_coeff terms from geometric mixing rule
Step          Temp          Press          PotEng        Density         KinEng         TotEng           Lx             Ly             Lz            Xlo            Xhi            Ylo            Yhi            Zlo            Zhi           Volume           Dt            Time           CPU           T/CPU          S/CPU         CPULeft
28110000   1354.3508     -10.920929     -25821644       0.082665969    4033.0255     -25817611       2039.0556      2039.0556      2039.0556      980.47218      3019.5278      980.47218      3019.5278      980.47218      3019.5278      8.4778793e+09  0.5            14260000       0              0              0              0
Averages over the last 751 of 1501 rows, steps 28260000 to 28410000:
Temp Press PotEng Density KinEng TotEng Lx Ly Lz Xlo Xhi Ylo Yhi Zlo Zhi Volume Dt
308.401 1.00012 -2.6317e+07 0.085845 918.367 -2.63161e+07 2013.57 2013.57 2013.57 993.213 3006.79 993.213 3006.79 993.213 3006.79 8.16402e+09 0.5
Loop time of 33.8109 on 4 procs for 300000 steps with 1000 atoms

# run_style
run_style verlet

# write restart
write_restart ./pgnpmf/010/equpmf40.res
System init for write_restart ...
Generated 0 of 1 mixed pair_coeff terms from geometric mixing rule
