LAMMPS (23 Jun 2022 - Update 1)
# Read restart
read_restart ./pgnpmf/010/equpmf109.res
Reading restart file ...
  restart file = 23 Jun 2022, LAMMPS = 23 Jun 2022
  restoring atom style atomic from restart
  orthogonal box = (1375.4943 1375.4943 1375.4943) to (2624.5057 2624.5057 2624.5057)
  restoring pair style table from restart
  1000 atoms
  read_restart CPU = 0.006 seconds

# Settings

pair_style table spline 9941

pair_coeff 1 1 ./pgnpmf/N20.txt DE_GNP 75.6
pair_coeff 2 2 ./pgnpmf/N100.txt DE_GNP 115.92
pair_coeff 1 2 ./pgnpmf/mixed_potential.txt DE_GNP 95.66

#Neigh_list Calc Frequency

neigh_modify delay 0 every 1 check yes

# Saving Frequency (50 frames)

variable ts_save equal 5000

# Dump
#dump_modify 1 first no sort id
dump 2 all cfg 50000 ./pgnpmf/010/equilibration/trajectory/dumpgen.tens_*.cfg mass type xs ys zs fx fy fz
dump_modify 2 element N20 N100

# thermo_style
thermo_style custom step temp press pe density ke etotal lx ly lz xlo xhi ylo yhi zlo zhi vol dt time cpu tpcpu spcpu cpuremain

# run info
timestep 0.1
thermo 200

# fix

fix 1 all momentum 1000 linear 1 1 1 angular
variable T equal 300
fix 2 all nvt temp 300 370000 100.0

run 100000
Generated 0 of 1 mixed pair_coeff terms from geometric mixing rule
Unused restart file global fix info:
  fix style: npt, fix ID: 5
  update every 1 steps, delay 0 steps, check yes
Step          Temp          Press          PotEng        Density         KinEng         TotEng           Lx             Ly             Lz            Xlo            Xhi            Ylo            Yhi            Zlo            Zhi           Volume           Dt            Time           CPU           T/CPU          S/CPU         CPULeft
76710000   304.08209      0.079091955   -45584270       0.35967877     905.50455     -45583364       1249.0114      1249.0114      1249.0114      1375.4943      2624.5057      1375.4943      2624.5057      1375.4943      2624.5057      1.9484945e+09  0.1            38280000       0              0              0              0
Averages over the last 251 of 501 rows, steps 76760000 to 76810000:
Temp Press PotEng Density KinEng TotEng Lx Ly Lz Xlo Xhi Ylo Yhi Zlo Zhi Volume Dt
277245 -2.72473 -4.49883e+07 0.359679 825587 -4.41627e+07 1249.01 1249.01 1249.01 1375.49 2624.51 1375.49 2624.51 1375.49 2624.51 1.94849e+09 0.1
Loop time of 9.82864 on 4 procs for 100000 steps with 1000 atoms

unfix 2

fix 3 all nvt temp 370000 370000 $(100.0*dt) #iso 1.0 1.0 $(1000.0*dt)
fix 3 all nvt temp 370000 370000 10

run 200000
Generated 0 of 1 mixed pair_coeff terms from geometric mixing rule
Step          Temp          Press          PotEng        Density         KinEng         TotEng           Lx             Ly             Lz            Xlo            Xhi            Ylo            Yhi            Zlo            Zhi           Volume           Dt            Time           CPU           T/CPU          S/CPU         CPULeft
76810000   348630.11      26.104494     -45098049       0.35967877     1038160.9     -44059888       1249.0114      1249.0114      1249.0114      1375.4943      2624.5057      1375.4943      2624.5057      1375.4943      2624.5057      1.9484945e+09  0.1            38290000       0              0              0              0
Averages over the last 501 of 1001 rows, steps 76910000 to 77010000:
Temp Press PotEng Density KinEng TotEng Lx Ly Lz Xlo Xhi Ylo Yhi Zlo Zhi Volume Dt
369920 71.1588 -4.58001e+07 0.359679 1.10156e+06 -4.46986e+07 1249.01 1249.01 1249.01 1375.49 2624.51 1375.49 2624.51 1375.49 2624.51 1.94849e+09 0.1
Loop time of 20.2314 on 4 procs for 200000 steps with 1000 atoms

unfix 3

fix 4 all nvt temp 370000 300 100.0

run 100000
Generated 0 of 1 mixed pair_coeff terms from geometric mixing rule
Step          Temp          Press          PotEng        Density         KinEng         TotEng           Lx             Ly             Lz            Xlo            Xhi            Ylo            Yhi            Zlo            Zhi           Volume           Dt            Time           CPU           T/CPU          S/CPU         CPULeft
77010000   362896.19      0.12277122    -45230925       0.35967877     1080642.9     -44150282       1249.0114      1249.0114      1249.0114      1375.4943      2624.5057      1375.4943      2624.5057      1375.4943      2624.5057      1.9484945e+09  0.1            38310000       0              0              0              0
Averages over the last 251 of 501 rows, steps 77060000 to 77110000:
Temp Press PotEng Density KinEng TotEng Lx Ly Lz Xlo Xhi Ylo Yhi Zlo Zhi Volume Dt
94713.3 -161.091 -4.48693e+07 0.359679 282040 -4.45872e+07 1249.01 1249.01 1249.01 1375.49 2624.51 1375.49 2624.51 1375.49 2624.51 1.94849e+09 0.1
Loop time of 9.82189 on 4 procs for 100000 steps with 1000 atoms

unfix 4

fix 5 all npt temp 300 300 $(100.0*dt) iso 1.0 1.0 $(1000.0*dt)
fix 5 all npt temp 300 300 10 iso 1.0 1.0 $(1000.0*dt)
fix 5 all npt temp 300 300 10 iso 1.0 1.0 100

run 300000
Generated 0 of 1 mixed pair_coeff terms from geometric mixing rule
Step          Temp          Press          PotEng        Density         KinEng         TotEng           Lx             Ly             Lz            Xlo            Xhi            Ylo            Yhi            Zlo            Zhi           Volume           Dt            Time           CPU           T/CPU          S/CPU         CPULeft
77110000   4930.0512     -194.38359     -44863180       0.35967877     14680.85      -44848499       1249.0114      1249.0114      1249.0114      1375.4943      2624.5057      1375.4943      2624.5057      1375.4943      2624.5057      1.9484945e+09  0.1            38320000       0              0              0              0
Averages over the last 751 of 1501 rows, steps 77260000 to 77410000:
Temp Press PotEng Density KinEng TotEng Lx Ly Lz Xlo Xhi Ylo Yhi Zlo Zhi Volume Dt
308.761 0.990425 -4.58934e+07 0.370866 919.438 -4.58924e+07 1236.32 1236.32 1236.32 1381.84 2618.16 1381.84 2618.16 1381.84 2618.16 1.88972e+09 0.1
Loop time of 34.5505 on 4 procs for 300000 steps with 1000 atoms

# run_style
run_style verlet

# write restart
write_restart ./pgnpmf/010/equpmf110.res
System init for write_restart ...
Generated 0 of 1 mixed pair_coeff terms from geometric mixing rule
