LAMMPS (23 Jun 2022 - Update 1)
# Read restart
read_restart ./pgnpmf/010/equpmf101.res
Reading restart file ...
  restart file = 23 Jun 2022, LAMMPS = 23 Jun 2022
  restoring atom style atomic from restart
  orthogonal box = (1354.5985 1354.5985 1354.5985) to (2645.4015 2645.4015 2645.4015)
  restoring pair style table from restart
  1000 atoms
  read_restart CPU = 0.029 seconds

# Settings

pair_style table spline 9941

pair_coeff 1 1 ./pgnpmf/N20.txt DE_GNP 75.6
pair_coeff 2 2 ./pgnpmf/N100.txt DE_GNP 115.92
pair_coeff 1 2 ./pgnpmf/mixed_potential.txt DE_GNP 95.66

#Neigh_list Calc Frequency

neigh_modify delay 0 every 1 check yes

# Saving Frequency (50 frames)

variable ts_save equal 5000

# Dump
#dump_modify 1 first no sort id
dump 2 all cfg 50000 ./pgnpmf/010/equilibration/trajectory/dumpgen.tens_*.cfg mass type xs ys zs fx fy fz
dump_modify 2 element N20 N100

# thermo_style
thermo_style custom step temp press pe density ke etotal lx ly lz xlo xhi ylo yhi zlo zhi vol dt time cpu tpcpu spcpu cpuremain

# run info
timestep 0.5
thermo 200

# fix

fix 1 all momentum 1000 linear 1 1 1 angular
variable T equal 300
fix 2 all nvt temp 300 370000 100.0

run 100000
Generated 0 of 1 mixed pair_coeff terms from geometric mixing rule
Unused restart file global fix info:
  fix style: npt, fix ID: 5
  update every 1 steps, delay 0 steps, check yes
Step          Temp          Press          PotEng        Density         KinEng         TotEng           Lx             Ly             Lz            Xlo            Xhi            Ylo            Yhi            Zlo            Zhi           Volume           Dt            Time           CPU           T/CPU          S/CPU         CPULeft
71110000   308.35445      1.7239252     -43993453       0.32586234     918.22689     -43992535       1290.8029      1290.8029      1290.8029      1354.5985      2645.4015      1354.5985      2645.4015      1354.5985      2645.4015      2.1506999e+09  0.5            35760000       0              0              0              0
Averages over the last 251 of 501 rows, steps 71160000 to 71210000:
Temp Press PotEng Density KinEng TotEng Lx Ly Lz Xlo Xhi Ylo Yhi Zlo Zhi Volume Dt
277145 21.2875 -4.36895e+07 0.325862 825289 -4.28642e+07 1290.8 1290.8 1290.8 1354.6 2645.4 1354.6 2645.4 1354.6 2645.4 2.1507e+09 0.5
Loop time of 10.4917 on 4 procs for 100000 steps with 1000 atoms

unfix 2

fix 3 all nvt temp 370000 370000 $(100.0*dt) #iso 1.0 1.0 $(1000.0*dt)
fix 3 all nvt temp 370000 370000 50

run 200000
Generated 0 of 1 mixed pair_coeff terms from geometric mixing rule
Step          Temp          Press          PotEng        Density         KinEng         TotEng           Lx             Ly             Lz            Xlo            Xhi            Ylo            Yhi            Zlo            Zhi           Volume           Dt            Time           CPU           T/CPU          S/CPU         CPULeft
71210000   367170.49     -8.9226545     -43309464       0.32586234     1093371       -42216092       1290.8029      1290.8029      1290.8029      1354.5985      2645.4015      1354.5985      2645.4015      1354.5985      2645.4015      2.1506999e+09  0.5            35810000       0              0              0              0
Averages over the last 501 of 1001 rows, steps 71310000 to 71410000:
Temp Press PotEng Density KinEng TotEng Lx Ly Lz Xlo Xhi Ylo Yhi Zlo Zhi Volume Dt
370221 6.12967 -4.23494e+07 0.325862 1.10246e+06 -4.12469e+07 1290.8 1290.8 1290.8 1354.6 2645.4 1354.6 2645.4 1354.6 2645.4 2.1507e+09 0.5
Loop time of 20.7801 on 4 procs for 200000 steps with 1000 atoms

unfix 3

fix 4 all nvt temp 370000 300 100.0

run 100000
Generated 0 of 1 mixed pair_coeff terms from geometric mixing rule
Step          Temp          Press          PotEng        Density         KinEng         TotEng           Lx             Ly             Lz            Xlo            Xhi            Ylo            Yhi            Zlo            Zhi           Volume           Dt            Time           CPU           T/CPU          S/CPU         CPULeft
71410000   378148.31     -14.31753      -41898572       0.32586234     1126061.1     -40772511       1290.8029      1290.8029      1290.8029      1354.5985      2645.4015      1354.5985      2645.4015      1354.5985      2645.4015      2.1506999e+09  0.5            35910000       0              0              0              0
Averages over the last 251 of 501 rows, steps 71460000 to 71510000:
Temp Press PotEng Density KinEng TotEng Lx Ly Lz Xlo Xhi Ylo Yhi Zlo Zhi Volume Dt
93240.6 -37.2963 -4.33829e+07 0.325862 277654 -4.31053e+07 1290.8 1290.8 1290.8 1354.6 2645.4 1354.6 2645.4 1354.6 2645.4 2.1507e+09 0.5
Loop time of 10.2173 on 4 procs for 100000 steps with 1000 atoms

unfix 4

fix 5 all npt temp 300 300 $(100.0*dt) iso 1.0 1.0 $(1000.0*dt)
fix 5 all npt temp 300 300 50 iso 1.0 1.0 $(1000.0*dt)
fix 5 all npt temp 300 300 50 iso 1.0 1.0 500

run 300000
Generated 0 of 1 mixed pair_coeff terms from geometric mixing rule
Step          Temp          Press          PotEng        Density         KinEng         TotEng           Lx             Ly             Lz            Xlo            Xhi            Ylo            Yhi            Zlo            Zhi           Volume           Dt            Time           CPU           T/CPU          S/CPU         CPULeft
71510000   1353.9838     -37.606808     -43622425       0.32586234     4031.9325     -43618393       1290.8029      1290.8029      1290.8029      1354.5985      2645.4015      1354.5985      2645.4015      1354.5985      2645.4015      2.1506999e+09  0.5            35960000       0              0              0              0
Averages over the last 751 of 1501 rows, steps 71660000 to 71810000:
Temp Press PotEng Density KinEng TotEng Lx Ly Lz Xlo Xhi Ylo Yhi Zlo Zhi Volume Dt
307.04 1.05817 -4.39323e+07 0.330088 914.312 -4.39314e+07 1285.27 1285.27 1285.27 1357.36 2642.64 1357.36 2642.64 1357.36 2642.64 2.12317e+09 0.5
Loop time of 36.3565 on 4 procs for 300000 steps with 1000 atoms

# run_style
run_style verlet

# write restart
write_restart ./pgnpmf/010/equpmf102.res
System init for write_restart ...
Generated 0 of 1 mixed pair_coeff terms from geometric mixing rule
