LAMMPS (23 Jun 2022 - Update 1)
# Read restart
read_restart ./pgnpmf/010/equpmf20.res
Reading restart file ...
  restart file = 23 Jun 2022, LAMMPS = 23 Jun 2022
  restoring atom style atomic from restart
  orthogonal box = (620.70967 620.70967 620.70967) to (3379.2903 3379.2903 3379.2903)
  restoring pair style table from restart
  1000 atoms
  read_restart CPU = 0.005 seconds

# Settings

pair_style table spline 9941

pair_coeff 1 1 ./pgnpmf/N20.txt DE_GNP 75.6
pair_coeff 2 2 ./pgnpmf/N100.txt DE_GNP 115.92
pair_coeff 1 2 ./pgnpmf/mixed_potential.txt DE_GNP 95.66

#Neigh_list Calc Frequency

neigh_modify delay 0 every 1 check yes

# Saving Frequency (50 frames)

variable ts_save equal 5000

# Dump
#dump_modify 1 first no sort id
dump 2 all cfg 50000 ./pgnpmf/010/equilibration/trajectory/dumpgen.tens_*.cfg mass type xs ys zs fx fy fz
dump_modify 2 element N20 N100

# thermo_style
thermo_style custom step temp press pe density ke etotal lx ly lz xlo xhi ylo yhi zlo zhi vol dt time cpu tpcpu spcpu cpuremain

# run info
timestep 0.5
thermo 200

# fix

fix 1 all momentum 1000 linear 1 1 1 angular
variable T equal 300
fix 2 all nvt temp 300 370000 100.0

run 100000
Generated 0 of 1 mixed pair_coeff terms from geometric mixing rule
Unused restart file global fix info:
  fix style: npt, fix ID: 5
  update every 1 steps, delay 0 steps, check yes
Step          Temp          Press          PotEng        Density         KinEng         TotEng           Lx             Ly             Lz            Xlo            Xhi            Ylo            Yhi            Zlo            Zhi           Volume           Dt            Time           CPU           T/CPU          S/CPU         CPULeft
14410000   307.26857      1.0167033     -27374950       0.033385427    914.99334     -27374035       2758.5807      2758.5807      2758.5807      620.70967      3379.2903      620.70967      3379.2903      620.70967      3379.2903      2.0992157e+10  0.5            7410000        0              0              0              0
Averages over the last 251 of 501 rows, steps 14460000 to 14510000:
Temp Press PotEng Density KinEng TotEng Lx Ly Lz Xlo Xhi Ylo Yhi Zlo Zhi Volume Dt
277275 1.34985 -2.67401e+07 0.0333854 825678 -2.59144e+07 2758.58 2758.58 2758.58 620.71 3379.29 620.71 3379.29 620.71 3379.29 2.09922e+10 0.5
Loop time of 10.4979 on 4 procs for 100000 steps with 1000 atoms

unfix 2

fix 3 all nvt temp 370000 370000 $(100.0*dt) #iso 1.0 1.0 $(1000.0*dt)
fix 3 all nvt temp 370000 370000 50

run 200000
Generated 0 of 1 mixed pair_coeff terms from geometric mixing rule
Step          Temp          Press          PotEng        Density         KinEng         TotEng           Lx             Ly             Lz            Xlo            Xhi            Ylo            Yhi            Zlo            Zhi           Volume           Dt            Time           CPU           T/CPU          S/CPU         CPULeft
14510000   375959.84      0.6932268     -26040325       0.033385427    1119544.2     -24920780       2758.5807      2758.5807      2758.5807      620.70967      3379.2903      620.70967      3379.2903      620.70967      3379.2903      2.0992157e+10  0.5            7460000        0              0              0              0
Averages over the last 501 of 1001 rows, steps 14610000 to 14710000:
Temp Press PotEng Density KinEng TotEng Lx Ly Lz Xlo Xhi Ylo Yhi Zlo Zhi Volume Dt
370044 1.16745 -2.54937e+07 0.0333854 1.10193e+06 -2.43918e+07 2758.58 2758.58 2758.58 620.71 3379.29 620.71 3379.29 620.71 3379.29 2.09922e+10 0.5
Loop time of 21.0879 on 4 procs for 200000 steps with 1000 atoms

unfix 3

fix 4 all nvt temp 370000 300 100.0

run 100000
Generated 0 of 1 mixed pair_coeff terms from geometric mixing rule
Step          Temp          Press          PotEng        Density         KinEng         TotEng           Lx             Ly             Lz            Xlo            Xhi            Ylo            Yhi            Zlo            Zhi           Volume           Dt            Time           CPU           T/CPU          S/CPU         CPULeft
14710000   385874.48      0.33308697    -25419812       0.033385427    1149068.3     -24270743       2758.5807      2758.5807      2758.5807      620.70967      3379.2903      620.70967      3379.2903      620.70967      3379.2903      2.0992157e+10  0.5            7560000        0              0              0              0
Averages over the last 251 of 501 rows, steps 14760000 to 14810000:
Temp Press PotEng Density KinEng TotEng Lx Ly Lz Xlo Xhi Ylo Yhi Zlo Zhi Volume Dt
93027.5 -4.62944 -2.66484e+07 0.0333854 277020 -2.63714e+07 2758.58 2758.58 2758.58 620.71 3379.29 620.71 3379.29 620.71 3379.29 2.09922e+10 0.5
Loop time of 10.4385 on 4 procs for 100000 steps with 1000 atoms

unfix 4

fix 5 all npt temp 300 300 $(100.0*dt) iso 1.0 1.0 $(1000.0*dt)
fix 5 all npt temp 300 300 50 iso 1.0 1.0 $(1000.0*dt)
fix 5 all npt temp 300 300 50 iso 1.0 1.0 500

run 300000
Generated 0 of 1 mixed pair_coeff terms from geometric mixing rule
Step          Temp          Press          PotEng        Density         KinEng         TotEng           Lx             Ly             Lz            Xlo            Xhi            Ylo            Yhi            Zlo            Zhi           Volume           Dt            Time           CPU           T/CPU          S/CPU         CPULeft
14810000   1355.9636     -4.9331807     -27282264       0.033385427    4037.8281     -27278226       2758.5807      2758.5807      2758.5807      620.70967      3379.2903      620.70967      3379.2903      620.70967      3379.2903      2.0992157e+10  0.5            7610000        0              0              0              0
Averages over the last 751 of 1501 rows, steps 14960000 to 15110000:
Temp Press PotEng Density KinEng TotEng Lx Ly Lz Xlo Xhi Ylo Yhi Zlo Zhi Volume Dt
308.351 0.996539 -2.78367e+07 0.0348697 918.217 -2.78358e+07 2718.89 2718.89 2718.89 640.557 3359.44 640.557 3359.44 640.557 3359.44 2.00991e+10 0.5
Loop time of 38.3033 on 4 procs for 300000 steps with 1000 atoms

# run_style
run_style verlet

# write restart
write_restart ./pgnpmf/010/equpmf21.res
System init for write_restart ...
Generated 0 of 1 mixed pair_coeff terms from geometric mixing rule
