LAMMPS (23 Jun 2022 - Update 1)
# Read restart
read_restart ./pgnpmf/010/equpmf72.res
Reading restart file ...
  restart file = 23 Jun 2022, LAMMPS = 23 Jun 2022
  restoring atom style atomic from restart
  orthogonal box = (1257.5223 1257.5223 1257.5223) to (2742.4777 2742.4777 2742.4777)
  restoring pair style table from restart
  1000 atoms
  read_restart CPU = 0.005 seconds

# Settings

pair_style table spline 9941

pair_coeff 1 1 ./pgnpmf/N20.txt DE_GNP 75.6
pair_coeff 2 2 ./pgnpmf/N100.txt DE_GNP 115.92
pair_coeff 1 2 ./pgnpmf/mixed_potential.txt DE_GNP 95.66

#Neigh_list Calc Frequency

neigh_modify delay 0 every 1 check yes

# Saving Frequency (50 frames)

variable ts_save equal 5000

# Dump
#dump_modify 1 first no sort id
dump 2 all cfg 50000 ./pgnpmf/010/equilibration/trajectory/dumpgen.tens_*.cfg mass type xs ys zs fx fy fz
dump_modify 2 element N20 N100

# thermo_style
thermo_style custom step temp press pe density ke etotal lx ly lz xlo xhi ylo yhi zlo zhi vol dt time cpu tpcpu spcpu cpuremain

# run info
timestep 0.5
thermo 200

# fix

fix 1 all momentum 1000 linear 1 1 1 angular
variable T equal 300
fix 2 all nvt temp 300 370000 100.0

run 100000
Generated 0 of 1 mixed pair_coeff terms from geometric mixing rule
Unused restart file global fix info:
  fix style: npt, fix ID: 5
  update every 1 steps, delay 0 steps, check yes
Step          Temp          Press          PotEng        Density         KinEng         TotEng           Lx             Ly             Lz            Xlo            Xhi            Ylo            Yhi            Zlo            Zhi           Volume           Dt            Time           CPU           T/CPU          S/CPU         CPULeft
50810000   306.87188      0.83374184    -33111492       0.21402957     913.81206     -33110578       1484.9554      1484.9554      1484.9554      1257.5223      2742.4777      1257.5223      2742.4777      1257.5223      2742.4777      3.2744639e+09  0.5            25610000       0              0              0              0
Averages over the last 251 of 501 rows, steps 50860000 to 50910000:
Temp Press PotEng Density KinEng TotEng Lx Ly Lz Xlo Xhi Ylo Yhi Zlo Zhi Volume Dt
277460 13.5215 -3.24435e+07 0.21403 826228 -3.16172e+07 1484.96 1484.96 1484.96 1257.52 2742.48 1257.52 2742.48 1257.52 2742.48 3.27446e+09 0.5
Loop time of 6.42744 on 4 procs for 100000 steps with 1000 atoms

unfix 2

fix 3 all nvt temp 370000 370000 $(100.0*dt) #iso 1.0 1.0 $(1000.0*dt)
fix 3 all nvt temp 370000 370000 50

run 200000
Generated 0 of 1 mixed pair_coeff terms from geometric mixing rule
Step          Temp          Press          PotEng        Density         KinEng         TotEng           Lx             Ly             Lz            Xlo            Xhi            Ylo            Yhi            Zlo            Zhi           Volume           Dt            Time           CPU           T/CPU          S/CPU         CPULeft
50910000   376224.93     -1.3365262     -31629716       0.21402957     1120333.6     -30509383       1484.9554      1484.9554      1484.9554      1257.5223      2742.4777      1257.5223      2742.4777      1257.5223      2742.4777      3.2744639e+09  0.5            25660000       0              0              0              0
Averages over the last 501 of 1001 rows, steps 51010000 to 51110000:
Temp Press PotEng Density KinEng TotEng Lx Ly Lz Xlo Xhi Ylo Yhi Zlo Zhi Volume Dt
369964 7.0217 -3.0894e+07 0.21403 1.10169e+06 -2.97923e+07 1484.96 1484.96 1484.96 1257.52 2742.48 1257.52 2742.48 1257.52 2742.48 3.27446e+09 0.5
Loop time of 12.5819 on 4 procs for 200000 steps with 1000 atoms

unfix 3

fix 4 all nvt temp 370000 300 100.0

run 100000
Generated 0 of 1 mixed pair_coeff terms from geometric mixing rule
Step          Temp          Press          PotEng        Density         KinEng         TotEng           Lx             Ly             Lz            Xlo            Xhi            Ylo            Yhi            Zlo            Zhi           Volume           Dt            Time           CPU           T/CPU          S/CPU         CPULeft
51110000   394490.62     -1.6472706     -30890986       0.21402957     1174725.7     -29716261       1484.9554      1484.9554      1484.9554      1257.5223      2742.4777      1257.5223      2742.4777      1257.5223      2742.4777      3.2744639e+09  0.5            25760000       0              0              0              0
Averages over the last 251 of 501 rows, steps 51160000 to 51210000:
Temp Press PotEng Density KinEng TotEng Lx Ly Lz Xlo Xhi Ylo Yhi Zlo Zhi Volume Dt
93172.5 -14.9954 -3.21735e+07 0.21403 277452 -3.1896e+07 1484.96 1484.96 1484.96 1257.52 2742.48 1257.52 2742.48 1257.52 2742.48 3.27446e+09 0.5
Loop time of 6.09863 on 4 procs for 100000 steps with 1000 atoms

unfix 4

fix 5 all npt temp 300 300 $(100.0*dt) iso 1.0 1.0 $(1000.0*dt)
fix 5 all npt temp 300 300 50 iso 1.0 1.0 $(1000.0*dt)
fix 5 all npt temp 300 300 50 iso 1.0 1.0 500

run 300000
Generated 0 of 1 mixed pair_coeff terms from geometric mixing rule
Step          Temp          Press          PotEng        Density         KinEng         TotEng           Lx             Ly             Lz            Xlo            Xhi            Ylo            Yhi            Zlo            Zhi           Volume           Dt            Time           CPU           T/CPU          S/CPU         CPULeft
51210000   1351.0821     -22.323432     -32726614       0.21402957     4023.2917     -32722590       1484.9554      1484.9554      1484.9554      1257.5223      2742.4777      1257.5223      2742.4777      1257.5223      2742.4777      3.2744639e+09  0.5            25810000       0              0              0              0
Averages over the last 751 of 1501 rows, steps 51360000 to 51510000:
Temp Press PotEng Density KinEng TotEng Lx Ly Lz Xlo Xhi Ylo Yhi Zlo Zhi Volume Dt
307.051 1.00591 -3.2955e+07 0.218142 914.346 -3.29541e+07 1475.57 1475.57 1475.57 1262.22 2737.78 1262.22 2737.78 1262.22 2737.78 3.21274e+09 0.5
Loop time of 22.8776 on 4 procs for 300000 steps with 1000 atoms

# run_style
run_style verlet

# write restart
write_restart ./pgnpmf/010/equpmf73.res
System init for write_restart ...
Generated 0 of 1 mixed pair_coeff terms from geometric mixing rule
