LAMMPS (23 Jun 2022 - Update 1)
# Read restart
read_restart ./pgnpmf/010/equpmf108.res
Reading restart file ...
  restart file = 23 Jun 2022, LAMMPS = 23 Jun 2022
  restoring atom style atomic from restart
  orthogonal box = (1372.0242 1372.0242 1372.0242) to (2627.9758 2627.9758 2627.9758)
  restoring pair style table from restart
  1000 atoms
  read_restart CPU = 0.023 seconds

# Settings

pair_style table spline 9941

pair_coeff 1 1 ./pgnpmf/N20.txt DE_GNP 75.6
pair_coeff 2 2 ./pgnpmf/N100.txt DE_GNP 115.92
pair_coeff 1 2 ./pgnpmf/mixed_potential.txt DE_GNP 95.66

#Neigh_list Calc Frequency

neigh_modify delay 0 every 1 check yes

# Saving Frequency (50 frames)

variable ts_save equal 5000

# Dump
#dump_modify 1 first no sort id
dump 2 all cfg 50000 ./pgnpmf/010/equilibration/trajectory/dumpgen.tens_*.cfg mass type xs ys zs fx fy fz
dump_modify 2 element N20 N100

# thermo_style
thermo_style custom step temp press pe density ke etotal lx ly lz xlo xhi ylo yhi zlo zhi vol dt time cpu tpcpu spcpu cpuremain

# run info
timestep 0.1
thermo 200

# fix

fix 1 all momentum 1000 linear 1 1 1 angular
variable T equal 300
fix 2 all nvt temp 300 370000 100.0

run 100000
Generated 0 of 1 mixed pair_coeff terms from geometric mixing rule
Unused restart file global fix info:
  fix style: npt, fix ID: 5
  update every 1 steps, delay 0 steps, check yes
Step          Temp          Press          PotEng        Density         KinEng         TotEng           Lx             Ly             Lz            Xlo            Xhi            Ylo            Yhi            Zlo            Zhi           Volume           Dt            Time           CPU           T/CPU          S/CPU         CPULeft
76010000   289.63164      0.4953396     -44421252       0.35374912     862.47357     -44420389       1255.9515      1255.9515      1255.9515      1372.0242      2627.9758      1372.0242      2627.9758      1372.0242      2627.9758      1.9811558e+09  0.1            38210000       0              0              0              0
Averages over the last 251 of 501 rows, steps 76060000 to 76110000:
Temp Press PotEng Density KinEng TotEng Lx Ly Lz Xlo Xhi Ylo Yhi Zlo Zhi Volume Dt
277656 45.812 -4.44847e+07 0.353749 826813 -4.36579e+07 1255.95 1255.95 1255.95 1372.02 2627.98 1372.02 2627.98 1372.02 2627.98 1.98116e+09 0.1
Loop time of 10.0028 on 4 procs for 100000 steps with 1000 atoms

unfix 2

fix 3 all nvt temp 370000 370000 $(100.0*dt) #iso 1.0 1.0 $(1000.0*dt)
fix 3 all nvt temp 370000 370000 10

run 200000
Generated 0 of 1 mixed pair_coeff terms from geometric mixing rule
Step          Temp          Press          PotEng        Density         KinEng         TotEng           Lx             Ly             Lz            Xlo            Xhi            Ylo            Yhi            Zlo            Zhi           Volume           Dt            Time           CPU           T/CPU          S/CPU         CPULeft
76110000   377747.71      65.798142     -44646951       0.35374912     1124868.2     -43522083       1255.9515      1255.9515      1255.9515      1372.0242      2627.9758      1372.0242      2627.9758      1372.0242      2627.9758      1.9811558e+09  0.1            38220000       0              0              0              0
Averages over the last 501 of 1001 rows, steps 76210000 to 76310000:
Temp Press PotEng Density KinEng TotEng Lx Ly Lz Xlo Xhi Ylo Yhi Zlo Zhi Volume Dt
370022 -24.8652 -4.50532e+07 0.353749 1.10186e+06 -4.39513e+07 1255.95 1255.95 1255.95 1372.02 2627.98 1372.02 2627.98 1372.02 2627.98 1.98116e+09 0.1
Loop time of 19.6183 on 4 procs for 200000 steps with 1000 atoms

unfix 3

fix 4 all nvt temp 370000 300 100.0

run 100000
Generated 0 of 1 mixed pair_coeff terms from geometric mixing rule
Step          Temp          Press          PotEng        Density         KinEng         TotEng           Lx             Ly             Lz            Xlo            Xhi            Ylo            Yhi            Zlo            Zhi           Volume           Dt            Time           CPU           T/CPU          S/CPU         CPULeft
76310000   384829.61     -65.543221     -44785224       0.35374912     1145956.9     -43639267       1255.9515      1255.9515      1255.9515      1372.0242      2627.9758      1372.0242      2627.9758      1372.0242      2627.9758      1.9811558e+09  0.1            38240000       0              0              0              0
Averages over the last 251 of 501 rows, steps 76360000 to 76410000:
Temp Press PotEng Density KinEng TotEng Lx Ly Lz Xlo Xhi Ylo Yhi Zlo Zhi Volume Dt
94658.8 -94.5593 -4.47885e+07 0.353749 281878 -4.45067e+07 1255.95 1255.95 1255.95 1372.02 2627.98 1372.02 2627.98 1372.02 2627.98 1.98116e+09 0.1
Loop time of 9.70679 on 4 procs for 100000 steps with 1000 atoms

unfix 4

fix 5 all npt temp 300 300 $(100.0*dt) iso 1.0 1.0 $(1000.0*dt)
fix 5 all npt temp 300 300 10 iso 1.0 1.0 $(1000.0*dt)
fix 5 all npt temp 300 300 10 iso 1.0 1.0 100

run 300000
Generated 0 of 1 mixed pair_coeff terms from geometric mixing rule
Step          Temp          Press          PotEng        Density         KinEng         TotEng           Lx             Ly             Lz            Xlo            Xhi            Ylo            Yhi            Zlo            Zhi           Volume           Dt            Time           CPU           T/CPU          S/CPU         CPULeft
76410000   4745.5426     -103.25648     -44832885       0.35374912     14131.415     -44818754       1255.9515      1255.9515      1255.9515      1372.0242      2627.9758      1372.0242      2627.9758      1372.0242      2627.9758      1.9811558e+09  0.1            38250000       0              0              0              0
Averages over the last 751 of 1501 rows, steps 76560000 to 76710000:
Temp Press PotEng Density KinEng TotEng Lx Ly Lz Xlo Xhi Ylo Yhi Zlo Zhi Volume Dt
304.736 0.966349 -4.55655e+07 0.359261 907.452 -4.55645e+07 1249.5 1249.5 1249.5 1375.25 2624.75 1375.25 2624.75 1375.25 2624.75 1.95076e+09 0.1
Loop time of 34.6341 on 4 procs for 300000 steps with 1000 atoms

# run_style
run_style verlet

# write restart
write_restart ./pgnpmf/010/equpmf109.res
System init for write_restart ...
Generated 0 of 1 mixed pair_coeff terms from geometric mixing rule
