LAMMPS (23 Jun 2022 - Update 1)
# Read restart
read_restart ./pgnpmf/010/equpmf124.res
Reading restart file ...
  restart file = 23 Jun 2022, LAMMPS = 23 Jun 2022
  restoring atom style atomic from restart
  orthogonal box = (1494.658 1494.658 1494.658) to (2505.342 2505.342 2505.342)
  restoring pair style table from restart
  1000 atoms
  read_restart CPU = 0.005 seconds

# Settings

pair_style table spline 9941

pair_coeff 1 1 ./pgnpmf/N20.txt DE_GNP 75.6
pair_coeff 2 2 ./pgnpmf/N100.txt DE_GNP 115.92
pair_coeff 1 2 ./pgnpmf/mixed_potential.txt DE_GNP 95.66

#Neigh_list Calc Frequency

neigh_modify delay 0 every 1 check yes

# Saving Frequency (50 frames)

variable ts_save equal 5000

# Dump
#dump_modify 1 first no sort id
dump 2 all cfg 50000 ./pgnpmf/010/equilibration/trajectory/dumpgen.tens_*.cfg mass type xs ys zs fx fy fz
dump_modify 2 element N20 N100

# thermo_style
thermo_style custom step temp press pe density ke etotal lx ly lz xlo xhi ylo yhi zlo zhi vol dt time cpu tpcpu spcpu cpuremain

# run info
timestep 0.1
thermo 200

# fix

fix 1 all momentum 1000 linear 1 1 1 angular
variable T equal 300
fix 2 all nvt temp 300 370000 100.0

run 100000
Generated 0 of 1 mixed pair_coeff terms from geometric mixing rule
Unused restart file global fix info:
  fix style: npt, fix ID: 5
  update every 1 steps, delay 0 steps, check yes
Step          Temp          Press          PotEng        Density         KinEng         TotEng           Lx             Ly             Lz            Xlo            Xhi            Ylo            Yhi            Zlo            Zhi           Volume           Dt            Time           CPU           T/CPU          S/CPU         CPULeft
90510000   309.86108      0.28965725    -49321746       0.67884063     922.71339     -49320823       1010.684       1010.684       1010.684       1494.658       2505.342       1494.658       2505.342       1494.658       2505.342       1.0323956e+09  0.1            39660000       0              0              0              0
Averages over the last 251 of 501 rows, steps 90560000 to 90610000:
Temp Press PotEng Density KinEng TotEng Lx Ly Lz Xlo Xhi Ylo Yhi Zlo Zhi Volume Dt
276918 -66.7507 -4.86749e+07 0.678841 824613 -4.78502e+07 1010.68 1010.68 1010.68 1494.66 2505.34 1494.66 2505.34 1494.66 2505.34 1.0324e+09 0.1
Loop time of 8.99094 on 4 procs for 100000 steps with 1000 atoms

unfix 2

fix 3 all nvt temp 370000 370000 $(100.0*dt) #iso 1.0 1.0 $(1000.0*dt)
fix 3 all nvt temp 370000 370000 10

run 500000
Generated 0 of 1 mixed pair_coeff terms from geometric mixing rule
Step          Temp          Press          PotEng        Density         KinEng         TotEng           Lx             Ly             Lz            Xlo            Xhi            Ylo            Yhi            Zlo            Zhi           Volume           Dt            Time           CPU           T/CPU          S/CPU         CPULeft
90610000   379239.63      36.402203     -48561377       0.67884063     1129310.9     -47432066       1010.684       1010.684       1010.684       1494.658       2505.342       1494.658       2505.342       1494.658       2505.342       1.0323956e+09  0.1            39670000       0              0              0              0
Averages over the last 1251 of 2501 rows, steps 90860000 to 91110000:
Temp Press PotEng Density KinEng TotEng Lx Ly Lz Xlo Xhi Ylo Yhi Zlo Zhi Volume Dt
370039 -113.444 -4.75349e+07 0.678841 1.10191e+06 -4.6433e+07 1010.68 1010.68 1010.68 1494.66 2505.34 1494.66 2505.34 1494.66 2505.34 1.0324e+09 0.1
Loop time of 45.5635 on 4 procs for 500000 steps with 1000 atoms

unfix 3

fix 4 all nvt temp 370000 300 100.0

run 100000
Generated 0 of 1 mixed pair_coeff terms from geometric mixing rule
Step          Temp          Press          PotEng        Density         KinEng         TotEng           Lx             Ly             Lz            Xlo            Xhi            Ylo            Yhi            Zlo            Zhi           Volume           Dt            Time           CPU           T/CPU          S/CPU         CPULeft
91110000   370311.4      -96.197027     -47591866       0.67884063     1102724.1     -46489142       1010.684       1010.684       1010.684       1494.658       2505.342       1494.658       2505.342       1494.658       2505.342       1.0323956e+09  0.1            39720000       0              0              0              0
Averages over the last 251 of 501 rows, steps 91160000 to 91210000:
Temp Press PotEng Density KinEng TotEng Lx Ly Lz Xlo Xhi Ylo Yhi Zlo Zhi Volume Dt
96315.4 -402.286 -4.7915e+07 0.678841 286811 -4.76282e+07 1010.68 1010.68 1010.68 1494.66 2505.34 1494.66 2505.34 1494.66 2505.34 1.0324e+09 0.1
Loop time of 8.81875 on 4 procs for 100000 steps with 1000 atoms

unfix 4

fix 5 all npt temp 300 300 $(100.0*dt) iso 1.0 1.0 $(1000.0*dt)
fix 5 all npt temp 300 300 10 iso 1.0 1.0 $(1000.0*dt)
fix 5 all npt temp 300 300 10 iso 1.0 1.0 100

run 300000
Generated 0 of 1 mixed pair_coeff terms from geometric mixing rule
Step          Temp          Press          PotEng        Density         KinEng         TotEng           Lx             Ly             Lz            Xlo            Xhi            Ylo            Yhi            Zlo            Zhi           Volume           Dt            Time           CPU           T/CPU          S/CPU         CPULeft
91210000   5159.4181     -520.14213     -48073933       0.67884063     15363.866     -48058570       1010.684       1010.684       1010.684       1494.658       2505.342       1494.658       2505.342       1494.658       2505.342       1.0323956e+09  0.1            39730000       0              0              0              0
Averages over the last 751 of 1501 rows, steps 91360000 to 91510000:
Temp Press PotEng Density KinEng TotEng Lx Ly Lz Xlo Xhi Ylo Yhi Zlo Zhi Volume Dt
312.957 0.951282 -4.95281e+07 0.709174 931.932 -4.95272e+07 996.064 996.064 996.064 1501.97 2498.03 1501.97 2498.03 1501.97 2498.03 9.8824e+08 0.1
Loop time of 31.7381 on 4 procs for 300000 steps with 1000 atoms

# run_style
run_style verlet

# write restart
write_restart ./pgnpmf/010/equpmf125.res
System init for write_restart ...
Generated 0 of 1 mixed pair_coeff terms from geometric mixing rule
