LAMMPS (23 Jun 2022 - Update 1)
# Read restart
read_restart ./pgnpmf/010/equpmf15.res
Reading restart file ...
  restart file = 23 Jun 2022, LAMMPS = 23 Jun 2022
  restoring atom style atomic from restart
  orthogonal box = (493.26489 493.26489 493.26489) to (3506.7351 3506.7351 3506.7351)
  restoring pair style table from restart
  1000 atoms
  read_restart CPU = 0.004 seconds

# Settings

pair_style table spline 9941

pair_coeff 1 1 ./pgnpmf/N20.txt DE_GNP 75.6
pair_coeff 2 2 ./pgnpmf/N100.txt DE_GNP 115.92
pair_coeff 1 2 ./pgnpmf/mixed_potential.txt DE_GNP 95.66

#Neigh_list Calc Frequency

neigh_modify delay 0 every 1 check yes

# Saving Frequency (50 frames)

variable ts_save equal 5000

# Dump
#dump_modify 1 first no sort id
dump 2 all cfg 50000 ./pgnpmf/010/equilibration/trajectory/dumpgen.tens_*.cfg mass type xs ys zs fx fy fz
dump_modify 2 element N20 N100

# thermo_style
thermo_style custom step temp press pe density ke etotal lx ly lz xlo xhi ylo yhi zlo zhi vol dt time cpu tpcpu spcpu cpuremain

# run info
timestep 0.5
thermo 200

# fix

fix 1 all momentum 1000 linear 1 1 1 angular
variable T equal 300
fix 2 all nvt temp 300 370000 100.0

run 100000
Generated 0 of 1 mixed pair_coeff terms from geometric mixing rule
Unused restart file global fix info:
  fix style: npt, fix ID: 5
  update every 1 steps, delay 0 steps, check yes
Step          Temp          Press          PotEng        Density         KinEng         TotEng           Lx             Ly             Lz            Xlo            Xhi            Ylo            Yhi            Zlo            Zhi           Volume           Dt            Time           CPU           T/CPU          S/CPU         CPULeft
10910000   308.31355      1.0231282     -28530479       0.025610218    918.1051      -28529561       3013.4702      3013.4702      3013.4702      493.26489      3506.7351      493.26489      3506.7351      493.26489      3506.7351      2.7365331e+10  0.5            5660000        0              0              0              0
Averages over the last 251 of 501 rows, steps 10960000 to 11010000:
Temp Press PotEng Density KinEng TotEng Lx Ly Lz Xlo Xhi Ylo Yhi Zlo Zhi Volume Dt
277483 2.05166 -2.82047e+07 0.0256102 826296 -2.73784e+07 3013.47 3013.47 3013.47 493.265 3506.74 493.265 3506.74 493.265 3506.74 2.73653e+10 0.5
Loop time of 10.8367 on 4 procs for 100000 steps with 1000 atoms

unfix 2

fix 3 all nvt temp 370000 370000 $(100.0*dt) #iso 1.0 1.0 $(1000.0*dt)
fix 3 all nvt temp 370000 370000 50

run 200000
Generated 0 of 1 mixed pair_coeff terms from geometric mixing rule
Step          Temp          Press          PotEng        Density         KinEng         TotEng           Lx             Ly             Lz            Xlo            Xhi            Ylo            Yhi            Zlo            Zhi           Volume           Dt            Time           CPU           T/CPU          S/CPU         CPULeft
11010000   365348.22      0.82989345    -27519779       0.025610218    1087944.6     -26431834       3013.4702      3013.4702      3013.4702      493.26489      3506.7351      493.26489      3506.7351      493.26489      3506.7351      2.7365331e+10  0.5            5710000        0              0              0              0
Averages over the last 501 of 1001 rows, steps 11110000 to 11210000:
Temp Press PotEng Density KinEng TotEng Lx Ly Lz Xlo Xhi Ylo Yhi Zlo Zhi Volume Dt
369800 0.60457 -2.59192e+07 0.0256102 1.1012e+06 -2.4818e+07 3013.47 3013.47 3013.47 493.265 3506.74 493.265 3506.74 493.265 3506.74 2.73653e+10 0.5
Loop time of 21.4436 on 4 procs for 200000 steps with 1000 atoms

unfix 3

fix 4 all nvt temp 370000 300 100.0

run 100000
Generated 0 of 1 mixed pair_coeff terms from geometric mixing rule
Step          Temp          Press          PotEng        Density         KinEng         TotEng           Lx             Ly             Lz            Xlo            Xhi            Ylo            Yhi            Zlo            Zhi           Volume           Dt            Time           CPU           T/CPU          S/CPU         CPULeft
11210000   365820.78      0.91526915    -26075737       0.025610218    1089351.8     -24986385       3013.4702      3013.4702      3013.4702      493.26489      3506.7351      493.26489      3506.7351      493.26489      3506.7351      2.7365331e+10  0.5            5810000        0              0              0              0
Averages over the last 251 of 501 rows, steps 11260000 to 11310000:
Temp Press PotEng Density KinEng TotEng Lx Ly Lz Xlo Xhi Ylo Yhi Zlo Zhi Volume Dt
93072.6 -3.10194 -2.70956e+07 0.0256102 277154 -2.68185e+07 3013.47 3013.47 3013.47 493.265 3506.74 493.265 3506.74 493.265 3506.74 2.73653e+10 0.5
Loop time of 10.5873 on 4 procs for 100000 steps with 1000 atoms

unfix 4

fix 5 all npt temp 300 300 $(100.0*dt) iso 1.0 1.0 $(1000.0*dt)
fix 5 all npt temp 300 300 50 iso 1.0 1.0 $(1000.0*dt)
fix 5 all npt temp 300 300 50 iso 1.0 1.0 500

run 300000
Generated 0 of 1 mixed pair_coeff terms from geometric mixing rule
Step          Temp          Press          PotEng        Density         KinEng         TotEng           Lx             Ly             Lz            Xlo            Xhi            Ylo            Yhi            Zlo            Zhi           Volume           Dt            Time           CPU           T/CPU          S/CPU         CPULeft
11310000   1349.8657     -3.7540839     -27661146       0.025610218    4019.6695     -27657126       3013.4702      3013.4702      3013.4702      493.26489      3506.7351      493.26489      3506.7351      493.26489      3506.7351      2.7365331e+10  0.5            5860000        0              0              0              0
Averages over the last 751 of 1501 rows, steps 11460000 to 11610000:
Temp Press PotEng Density KinEng TotEng Lx Ly Lz Xlo Xhi Ylo Yhi Zlo Zhi Volume Dt
308.639 0.998212 -2.8232e+07 0.0267338 919.076 -2.82311e+07 2970.66 2970.66 2970.66 514.669 3485.33 514.669 3485.33 514.669 3485.33 2.62158e+10 0.5
Loop time of 38.852 on 4 procs for 300000 steps with 1000 atoms

# run_style
run_style verlet

# write restart
write_restart ./pgnpmf/010/equpmf16.res
System init for write_restart ...
Generated 0 of 1 mixed pair_coeff terms from geometric mixing rule
