LAMMPS (23 Jun 2022 - Update 1)
# Read restart
read_restart ./pgnpmf/010/equpmf112.res
Reading restart file ...
  restart file = 23 Jun 2022, LAMMPS = 23 Jun 2022
  restoring atom style atomic from restart
  orthogonal box = (1397.8344 1397.8344 1397.8344) to (2602.1656 2602.1656 2602.1656)
  restoring pair style table from restart
  1000 atoms
  read_restart CPU = 0.007 seconds

# Settings

pair_style table spline 9941

pair_coeff 1 1 ./pgnpmf/N20.txt DE_GNP 75.6
pair_coeff 2 2 ./pgnpmf/N100.txt DE_GNP 115.92
pair_coeff 1 2 ./pgnpmf/mixed_potential.txt DE_GNP 95.66

#Neigh_list Calc Frequency

neigh_modify delay 0 every 1 check yes

# Saving Frequency (50 frames)

variable ts_save equal 5000

# Dump
#dump_modify 1 first no sort id
dump 2 all cfg 50000 ./pgnpmf/010/equilibration/trajectory/dumpgen.tens_*.cfg mass type xs ys zs fx fy fz
dump_modify 2 element N20 N100

# thermo_style
thermo_style custom step temp press pe density ke etotal lx ly lz xlo xhi ylo yhi zlo zhi vol dt time cpu tpcpu spcpu cpuremain

# run info
timestep 0.1
thermo 200

# fix

fix 1 all momentum 1000 linear 1 1 1 angular
variable T equal 300
fix 2 all nvt temp 300 370000 100.0

run 100000
Generated 0 of 1 mixed pair_coeff terms from geometric mixing rule
Unused restart file global fix info:
  fix style: npt, fix ID: 5
  update every 1 steps, delay 0 steps, check yes
Step          Temp          Press          PotEng        Density         KinEng         TotEng           Lx             Ly             Lz            Xlo            Xhi            Ylo            Yhi            Zlo            Zhi           Volume           Dt            Time           CPU           T/CPU          S/CPU         CPULeft
78810000   309.25866      0.55915011    -46393193       0.40121412     920.91949     -46392272       1204.3312      1204.3312      1204.3312      1397.8344      2602.1656      1397.8344      2602.1656      1397.8344      2602.1656      1.7467783e+09  0.1            38490000       0              0              0              0
Averages over the last 251 of 501 rows, steps 78860000 to 78910000:
Temp Press PotEng Density KinEng TotEng Lx Ly Lz Xlo Xhi Ylo Yhi Zlo Zhi Volume Dt
276757 -25.0603 -4.58992e+07 0.401214 824134 -4.50751e+07 1204.33 1204.33 1204.33 1397.83 2602.17 1397.83 2602.17 1397.83 2602.17 1.74678e+09 0.1
Loop time of 8.61333 on 4 procs for 100000 steps with 1000 atoms

unfix 2

fix 3 all nvt temp 370000 370000 $(100.0*dt) #iso 1.0 1.0 $(1000.0*dt)
fix 3 all nvt temp 370000 370000 10

run 200000
Generated 0 of 1 mixed pair_coeff terms from geometric mixing rule
Step          Temp          Press          PotEng        Density         KinEng         TotEng           Lx             Ly             Lz            Xlo            Xhi            Ylo            Yhi            Zlo            Zhi           Volume           Dt            Time           CPU           T/CPU          S/CPU         CPULeft
78910000   375861.62      53.324058     -45843408       0.40121412     1119251.7     -44724156       1204.3312      1204.3312      1204.3312      1397.8344      2602.1656      1397.8344      2602.1656      1397.8344      2602.1656      1.7467783e+09  0.1            38500000       0              0              0              0
Averages over the last 501 of 1001 rows, steps 79010000 to 79110000:
Temp Press PotEng Density KinEng TotEng Lx Ly Lz Xlo Xhi Ylo Yhi Zlo Zhi Volume Dt
369948 120 -4.62597e+07 0.401214 1.10164e+06 -4.51581e+07 1204.33 1204.33 1204.33 1397.83 2602.17 1397.83 2602.17 1397.83 2602.17 1.74678e+09 0.1
Loop time of 17.4224 on 4 procs for 200000 steps with 1000 atoms

unfix 3

fix 4 all nvt temp 370000 300 100.0

run 100000
Generated 0 of 1 mixed pair_coeff terms from geometric mixing rule
Step          Temp          Press          PotEng        Density         KinEng         TotEng           Lx             Ly             Lz            Xlo            Xhi            Ylo            Yhi            Zlo            Zhi           Volume           Dt            Time           CPU           T/CPU          S/CPU         CPULeft
79110000   368013.75      52.270386     -45721105       0.40121412     1095882.1     -44625223       1204.3312      1204.3312      1204.3312      1397.8344      2602.1656      1397.8344      2602.1656      1397.8344      2602.1656      1.7467783e+09  0.1            38520000       0              0              0              0
Averages over the last 251 of 501 rows, steps 79160000 to 79210000:
Temp Press PotEng Density KinEng TotEng Lx Ly Lz Xlo Xhi Ylo Yhi Zlo Zhi Volume Dt
95854.3 -176.805 -4.50305e+07 0.401214 285438 -4.47451e+07 1204.33 1204.33 1204.33 1397.83 2602.17 1397.83 2602.17 1397.83 2602.17 1.74678e+09 0.1
Loop time of 8.42385 on 4 procs for 100000 steps with 1000 atoms

unfix 4

fix 5 all npt temp 300 300 $(100.0*dt) iso 1.0 1.0 $(1000.0*dt)
fix 5 all npt temp 300 300 10 iso 1.0 1.0 $(1000.0*dt)
fix 5 all npt temp 300 300 10 iso 1.0 1.0 100

run 300000
Generated 0 of 1 mixed pair_coeff terms from geometric mixing rule
Step          Temp          Press          PotEng        Density         KinEng         TotEng           Lx             Ly             Lz            Xlo            Xhi            Ylo            Yhi            Zlo            Zhi           Volume           Dt            Time           CPU           T/CPU          S/CPU         CPULeft
79210000   5042.4681     -240.95842     -45053076       0.40121412     15015.609     -45038060       1204.3312      1204.3312      1204.3312      1397.8344      2602.1656      1397.8344      2602.1656      1397.8344      2602.1656      1.7467783e+09  0.1            38530000       0              0              0              0
Averages over the last 751 of 1501 rows, steps 79360000 to 79510000:
Temp Press PotEng Density KinEng TotEng Lx Ly Lz Xlo Xhi Ylo Yhi Zlo Zhi Volume Dt
310.304 0.99016 -4.65891e+07 0.415396 924.031 -4.65882e+07 1190.47 1190.47 1190.47 1404.77 2595.23 1404.77 2595.23 1404.77 2595.23 1.68715e+09 0.1
Loop time of 30.219 on 4 procs for 300000 steps with 1000 atoms

# run_style
run_style verlet

# write restart
write_restart ./pgnpmf/010/equpmf113.res
System init for write_restart ...
Generated 0 of 1 mixed pair_coeff terms from geometric mixing rule
