LAMMPS (23 Jun 2022 - Update 1)
# Read restart
read_restart ./pgnpmf/010/equpmf42.res
Reading restart file ...
  restart file = 23 Jun 2022, LAMMPS = 23 Jun 2022
  restoring atom style atomic from restart
  orthogonal box = (1025.8662 1025.8662 1025.8662) to (2974.1338 2974.1338 2974.1338)
  restoring pair style table from restart
  1000 atoms
  read_restart CPU = 0.004 seconds

# Settings

pair_style table spline 9941

pair_coeff 1 1 ./pgnpmf/N20.txt DE_GNP 75.6
pair_coeff 2 2 ./pgnpmf/N100.txt DE_GNP 115.92
pair_coeff 1 2 ./pgnpmf/mixed_potential.txt DE_GNP 95.66

#Neigh_list Calc Frequency

neigh_modify delay 0 every 1 check yes

# Saving Frequency (50 frames)

variable ts_save equal 5000

# Dump
#dump_modify 1 first no sort id
dump 2 all cfg 50000 ./pgnpmf/010/equilibration/trajectory/dumpgen.tens_*.cfg mass type xs ys zs fx fy fz
dump_modify 2 element N20 N100

# thermo_style
thermo_style custom step temp press pe density ke etotal lx ly lz xlo xhi ylo yhi zlo zhi vol dt time cpu tpcpu spcpu cpuremain

# run info
timestep 0.5
thermo 200

# fix

fix 1 all momentum 1000 linear 1 1 1 angular
variable T equal 300
fix 2 all nvt temp 300 370000 100.0

run 100000
Generated 0 of 1 mixed pair_coeff terms from geometric mixing rule
Unused restart file global fix info:
  fix style: npt, fix ID: 5
  update every 1 steps, delay 0 steps, check yes
Step          Temp          Press          PotEng        Density         KinEng         TotEng           Lx             Ly             Lz            Xlo            Xhi            Ylo            Yhi            Zlo            Zhi           Volume           Dt            Time           CPU           T/CPU          S/CPU         CPULeft
29810000   307.19834      0.80706768    -25314225       0.094769402    914.7842      -25313310       1948.2676      1948.2676      1948.2676      1025.8662      2974.1338      1025.8662      2974.1338      1025.8662      2974.1338      7.3951307e+09  0.5            15110000       0              0              0              0
Averages over the last 251 of 501 rows, steps 29860000 to 29910000:
Temp Press PotEng Density KinEng TotEng Lx Ly Lz Xlo Xhi Ylo Yhi Zlo Zhi Volume Dt
277693 6.72013 -2.49389e+07 0.0947694 826923 -2.4112e+07 1948.27 1948.27 1948.27 1025.87 2974.13 1025.87 2974.13 1025.87 2974.13 7.39513e+09 0.5
Loop time of 8.77416 on 4 procs for 100000 steps with 1000 atoms

unfix 2

fix 3 all nvt temp 370000 370000 $(100.0*dt) #iso 1.0 1.0 $(1000.0*dt)
fix 3 all nvt temp 370000 370000 50

run 200000
Generated 0 of 1 mixed pair_coeff terms from geometric mixing rule
Step          Temp          Press          PotEng        Density         KinEng         TotEng           Lx             Ly             Lz            Xlo            Xhi            Ylo            Yhi            Zlo            Zhi           Volume           Dt            Time           CPU           T/CPU          S/CPU         CPULeft
29910000   356200.7       1.4643065     -24352504       0.094769402    1060704.9     -23291799       1948.2676      1948.2676      1948.2676      1025.8662      2974.1338      1025.8662      2974.1338      1025.8662      2974.1338      7.3951307e+09  0.5            15160000       0              0              0              0
Averages over the last 501 of 1001 rows, steps 30010000 to 30110000:
Temp Press PotEng Density KinEng TotEng Lx Ly Lz Xlo Xhi Ylo Yhi Zlo Zhi Volume Dt
369894 2.24331 -2.31317e+07 0.0947694 1.10148e+06 -2.20302e+07 1948.27 1948.27 1948.27 1025.87 2974.13 1025.87 2974.13 1025.87 2974.13 7.39513e+09 0.5
Loop time of 17.6382 on 4 procs for 200000 steps with 1000 atoms

unfix 3

fix 4 all nvt temp 370000 300 100.0

run 100000
Generated 0 of 1 mixed pair_coeff terms from geometric mixing rule
Step          Temp          Press          PotEng        Density         KinEng         TotEng           Lx             Ly             Lz            Xlo            Xhi            Ylo            Yhi            Zlo            Zhi           Volume           Dt            Time           CPU           T/CPU          S/CPU         CPULeft
30110000   380724.04      4.4339783     -23278256       0.094769402    1133731.2     -22144525       1948.2676      1948.2676      1948.2676      1025.8662      2974.1338      1025.8662      2974.1338      1025.8662      2974.1338      7.3951307e+09  0.5            15260000       0              0              0              0
Averages over the last 251 of 501 rows, steps 30160000 to 30210000:
Temp Press PotEng Density KinEng TotEng Lx Ly Lz Xlo Xhi Ylo Yhi Zlo Zhi Volume Dt
92992.8 -12.9594 -2.44545e+07 0.0947694 276917 -2.41776e+07 1948.27 1948.27 1948.27 1025.87 2974.13 1025.87 2974.13 1025.87 2974.13 7.39513e+09 0.5
Loop time of 8.79367 on 4 procs for 100000 steps with 1000 atoms

unfix 4

fix 5 all npt temp 300 300 $(100.0*dt) iso 1.0 1.0 $(1000.0*dt)
fix 5 all npt temp 300 300 50 iso 1.0 1.0 $(1000.0*dt)
fix 5 all npt temp 300 300 50 iso 1.0 1.0 500

run 300000
Generated 0 of 1 mixed pair_coeff terms from geometric mixing rule
Step          Temp          Press          PotEng        Density         KinEng         TotEng           Lx             Ly             Lz            Xlo            Xhi            Ylo            Yhi            Zlo            Zhi           Volume           Dt            Time           CPU           T/CPU          S/CPU         CPULeft
30210000   1362.8333     -15.809315     -25000523       0.094769402    4058.2848     -24996465       1948.2676      1948.2676      1948.2676      1025.8662      2974.1338      1025.8662      2974.1338      1025.8662      2974.1338      7.3951307e+09  0.5            15310000       0              0              0              0
Averages over the last 751 of 1501 rows, steps 30360000 to 30510000:
Temp Press PotEng Density KinEng TotEng Lx Ly Lz Xlo Xhi Ylo Yhi Zlo Zhi Volume Dt
310.14 0.996908 -2.56107e+07 0.0991925 923.544 -2.56098e+07 1918.88 1918.88 1918.88 1040.56 2959.44 1040.56 2959.44 1040.56 2959.44 7.06554e+09 0.5
Loop time of 32.3291 on 4 procs for 300000 steps with 1000 atoms

# run_style
run_style verlet

# write restart
write_restart ./pgnpmf/010/equpmf43.res
System init for write_restart ...
Generated 0 of 1 mixed pair_coeff terms from geometric mixing rule
