LAMMPS (23 Jun 2022 - Update 1)
# Read restart
read_restart ./pgnpmf/010/equpmf102.res
Reading restart file ...
  restart file = 23 Jun 2022, LAMMPS = 23 Jun 2022
  restoring atom style atomic from restart
  orthogonal box = (1357.8041 1357.8041 1357.8041) to (2642.1959 2642.1959 2642.1959)
  restoring pair style table from restart
  1000 atoms
  read_restart CPU = 0.005 seconds

# Settings

pair_style table spline 9941

pair_coeff 1 1 ./pgnpmf/N20.txt DE_GNP 75.6
pair_coeff 2 2 ./pgnpmf/N100.txt DE_GNP 115.92
pair_coeff 1 2 ./pgnpmf/mixed_potential.txt DE_GNP 95.66

#Neigh_list Calc Frequency

neigh_modify delay 0 every 1 check yes

# Saving Frequency (50 frames)

variable ts_save equal 5000

# Dump
#dump_modify 1 first no sort id
dump 2 all cfg 50000 ./pgnpmf/010/equilibration/trajectory/dumpgen.tens_*.cfg mass type xs ys zs fx fy fz
dump_modify 2 element N20 N100

# thermo_style
thermo_style custom step temp press pe density ke etotal lx ly lz xlo xhi ylo yhi zlo zhi vol dt time cpu tpcpu spcpu cpuremain

# run info
timestep 0.5
thermo 200

# fix

fix 1 all momentum 1000 linear 1 1 1 angular
variable T equal 300
fix 2 all nvt temp 300 370000 100.0

run 100000
Generated 0 of 1 mixed pair_coeff terms from geometric mixing rule
Unused restart file global fix info:
  fix style: npt, fix ID: 5
  update every 1 steps, delay 0 steps, check yes
Step          Temp          Press          PotEng        Density         KinEng         TotEng           Lx             Ly             Lz            Xlo            Xhi            Ylo            Yhi            Zlo            Zhi           Volume           Dt            Time           CPU           T/CPU          S/CPU         CPULeft
71810000   304.6947       1.1288526     -43922664       0.33076642     907.32879     -43921757       1284.3918      1284.3918      1284.3918      1357.8041      2642.1959      1357.8041      2642.1959      1357.8041      2642.1959      2.1188128e+09  0.5            36110000       0              0              0              0
Averages over the last 251 of 501 rows, steps 71860000 to 71910000:
Temp Press PotEng Density KinEng TotEng Lx Ly Lz Xlo Xhi Ylo Yhi Zlo Zhi Volume Dt
277540 13.501 -4.41686e+07 0.330766 826468 -4.33421e+07 1284.39 1284.39 1284.39 1357.8 2642.2 1357.8 2642.2 1357.8 2642.2 2.11881e+09 0.5
Loop time of 10.4741 on 4 procs for 100000 steps with 1000 atoms

unfix 2

fix 3 all nvt temp 370000 370000 $(100.0*dt) #iso 1.0 1.0 $(1000.0*dt)
fix 3 all nvt temp 370000 370000 50

run 200000
Generated 0 of 1 mixed pair_coeff terms from geometric mixing rule
Step          Temp          Press          PotEng        Density         KinEng         TotEng           Lx             Ly             Lz            Xlo            Xhi            Ylo            Yhi            Zlo            Zhi           Volume           Dt            Time           CPU           T/CPU          S/CPU         CPULeft
71910000   362095.92     -18.974298     -43871128       0.33076642     1078259.8     -42792868       1284.3918      1284.3918      1284.3918      1357.8041      2642.1959      1357.8041      2642.1959      1357.8041      2642.1959      2.1188128e+09  0.5            36160000       0              0              0              0
Averages over the last 501 of 1001 rows, steps 72010000 to 72110000:
Temp Press PotEng Density KinEng TotEng Lx Ly Lz Xlo Xhi Ylo Yhi Zlo Zhi Volume Dt
369852 1.91294 -4.34766e+07 0.330766 1.10136e+06 -4.23752e+07 1284.39 1284.39 1284.39 1357.8 2642.2 1357.8 2642.2 1357.8 2642.2 2.11881e+09 0.5
Loop time of 21.0902 on 4 procs for 200000 steps with 1000 atoms

unfix 3

fix 4 all nvt temp 370000 300 100.0

run 100000
Generated 0 of 1 mixed pair_coeff terms from geometric mixing rule
Step          Temp          Press          PotEng        Density         KinEng         TotEng           Lx             Ly             Lz            Xlo            Xhi            Ylo            Yhi            Zlo            Zhi           Volume           Dt            Time           CPU           T/CPU          S/CPU         CPULeft
72110000   365684.95     -7.5292956     -43563703       0.33076642     1088947.3     -42474756       1284.3918      1284.3918      1284.3918      1357.8041      2642.1959      1357.8041      2642.1959      1357.8041      2642.1959      2.1188128e+09  0.5            36260000       0              0              0              0
Averages over the last 251 of 501 rows, steps 72160000 to 72210000:
Temp Press PotEng Density KinEng TotEng Lx Ly Lz Xlo Xhi Ylo Yhi Zlo Zhi Volume Dt
93165.4 -34.7949 -4.46493e+07 0.330766 277431 -4.43719e+07 1284.39 1284.39 1284.39 1357.8 2642.2 1357.8 2642.2 1357.8 2642.2 2.11881e+09 0.5
Loop time of 10.4747 on 4 procs for 100000 steps with 1000 atoms

unfix 4

fix 5 all npt temp 300 300 $(100.0*dt) iso 1.0 1.0 $(1000.0*dt)
fix 5 all npt temp 300 300 50 iso 1.0 1.0 $(1000.0*dt)
fix 5 all npt temp 300 300 50 iso 1.0 1.0 500

run 300000
Generated 0 of 1 mixed pair_coeff terms from geometric mixing rule
Step          Temp          Press          PotEng        Density         KinEng         TotEng           Lx             Ly             Lz            Xlo            Xhi            Ylo            Yhi            Zlo            Zhi           Volume           Dt            Time           CPU           T/CPU          S/CPU         CPULeft
72210000   1351.6073     -31.442056     -44760293       0.33076642     4024.8558     -44756268       1284.3918      1284.3918      1284.3918      1357.8041      2642.1959      1357.8041      2642.1959      1357.8041      2642.1959      2.1188128e+09  0.5            36310000       0              0              0              0
Averages over the last 751 of 1501 rows, steps 72360000 to 72510000:
Temp Press PotEng Density KinEng TotEng Lx Ly Lz Xlo Xhi Ylo Yhi Zlo Zhi Volume Dt
307.143 1.00852 -4.49022e+07 0.334664 914.62 -4.49013e+07 1279.39 1279.39 1279.39 1360.31 2639.69 1360.31 2639.69 1360.31 2639.69 2.09414e+09 0.5
Loop time of 36.7883 on 4 procs for 300000 steps with 1000 atoms

# run_style
run_style verlet

# write restart
write_restart ./pgnpmf/010/equpmf103.res
System init for write_restart ...
Generated 0 of 1 mixed pair_coeff terms from geometric mixing rule
