LAMMPS (23 Jun 2022 - Update 1)
# Read restart
read_restart ./pgnpmf/010/equpmf6.res
Reading restart file ...
  restart file = 23 Jun 2022, LAMMPS = 23 Jun 2022
  restoring atom style atomic from restart
  orthogonal box = (213.85347 213.85347 213.85347) to (3786.1465 3786.1465 3786.1465)
  restoring pair style table from restart
  1000 atoms
  read_restart CPU = 0.005 seconds

# Settings

pair_style table spline 9941

pair_coeff 1 1 ./pgnpmf/N20.txt DE_GNP 75.6
pair_coeff 2 2 ./pgnpmf/N100.txt DE_GNP 115.92
pair_coeff 1 2 ./pgnpmf/mixed_potential.txt DE_GNP 95.66

#Neigh_list Calc Frequency

neigh_modify delay 0 every 1 check yes

# Saving Frequency (50 frames)

variable ts_save equal 5000

# Dump
#dump_modify 1 first no sort id
dump 2 all cfg 50000 ./pgnpmf/010/equilibration/trajectory/dumpgen.tens_*.cfg mass type xs ys zs fx fy fz
dump_modify 2 element N20 N100

# thermo_style
thermo_style custom step temp press pe density ke etotal lx ly lz xlo xhi ylo yhi zlo zhi vol dt time cpu tpcpu spcpu cpuremain

# run info
timestep 0.5
thermo 200

# fix

fix 1 all momentum 1000 linear 1 1 1 angular
variable T equal 300
fix 2 all nvt temp 300 370000 100.0

run 100000
Generated 0 of 1 mixed pair_coeff terms from geometric mixing rule
Unused restart file global fix info:
  fix style: npt, fix ID: 5
  update every 1 steps, delay 0 steps, check yes
Step          Temp          Press          PotEng        Density         KinEng         TotEng           Lx             Ly             Lz            Xlo            Xhi            Ylo            Yhi            Zlo            Zhi           Volume           Dt            Time           CPU           T/CPU          S/CPU         CPULeft
4610000   308.57656      0.98390401    -31472654       0.0153735      918.8883      -31471735       3572.2931      3572.2931      3572.2931      213.85347      3786.1465      213.85347      3786.1465      213.85347      3786.1465      4.5587024e+10  0.5            2510000        0              0              0              0
Averages over the last 251 of 501 rows, steps 4660000 to 4710000:
Temp Press PotEng Density KinEng TotEng Lx Ly Lz Xlo Xhi Ylo Yhi Zlo Zhi Volume Dt
277862 1.80639 -3.1087e+07 0.0153735 827425 -3.02596e+07 3572.29 3572.29 3572.29 213.853 3786.15 213.853 3786.15 213.853 3786.15 4.5587e+10 0.5
Loop time of 11.8208 on 4 procs for 100000 steps with 1000 atoms

unfix 2

fix 3 all nvt temp 370000 370000 $(100.0*dt) #iso 1.0 1.0 $(1000.0*dt)
fix 3 all nvt temp 370000 370000 50

run 200000
Generated 0 of 1 mixed pair_coeff terms from geometric mixing rule
Step          Temp          Press          PotEng        Density         KinEng         TotEng           Lx             Ly             Lz            Xlo            Xhi            Ylo            Yhi            Zlo            Zhi           Volume           Dt            Time           CPU           T/CPU          S/CPU         CPULeft
4710000   378964.38      2.093352      -30667153       0.0153735      1128491.2     -29538662       3572.2931      3572.2931      3572.2931      213.85347      3786.1465      213.85347      3786.1465      213.85347      3786.1465      4.5587024e+10  0.5            2560000        0              0              0              0
Averages over the last 501 of 1001 rows, steps 4810000 to 4910000:
Temp Press PotEng Density KinEng TotEng Lx Ly Lz Xlo Xhi Ylo Yhi Zlo Zhi Volume Dt
369772 0.0841106 -2.87846e+07 0.0153735 1.10112e+06 -2.76835e+07 3572.29 3572.29 3572.29 213.853 3786.15 213.853 3786.15 213.853 3786.15 4.5587e+10 0.5
Loop time of 23.423 on 4 procs for 200000 steps with 1000 atoms

unfix 3

fix 4 all nvt temp 370000 300 100.0

run 100000
Generated 0 of 1 mixed pair_coeff terms from geometric mixing rule
Step          Temp          Press          PotEng        Density         KinEng         TotEng           Lx             Ly             Lz            Xlo            Xhi            Ylo            Yhi            Zlo            Zhi           Volume           Dt            Time           CPU           T/CPU          S/CPU         CPULeft
4910000   370493.4       0.0012490249  -28717628       0.0153735      1103266.1     -27614362       3572.2931      3572.2931      3572.2931      213.85347      3786.1465      213.85347      3786.1465      213.85347      3786.1465      4.5587024e+10  0.5            2660000        0              0              0              0
Averages over the last 251 of 501 rows, steps 4960000 to 5010000:
Temp Press PotEng Density KinEng TotEng Lx Ly Lz Xlo Xhi Ylo Yhi Zlo Zhi Volume Dt
93058.6 -2.86009 -3.03267e+07 0.0153735 277113 -3.00496e+07 3572.29 3572.29 3572.29 213.853 3786.15 213.853 3786.15 213.853 3786.15 4.5587e+10 0.5
Loop time of 11.427 on 4 procs for 100000 steps with 1000 atoms

unfix 4

fix 5 all npt temp 300 300 $(100.0*dt) iso 1.0 1.0 $(1000.0*dt)
fix 5 all npt temp 300 300 50 iso 1.0 1.0 $(1000.0*dt)
fix 5 all npt temp 300 300 50 iso 1.0 1.0 500

run 300000
Generated 0 of 1 mixed pair_coeff terms from geometric mixing rule
Step          Temp          Press          PotEng        Density         KinEng         TotEng           Lx             Ly             Lz            Xlo            Xhi            Ylo            Yhi            Zlo            Zhi           Volume           Dt            Time           CPU           T/CPU          S/CPU         CPULeft
5010000   1346.2751     -2.7174597     -30961161       0.0153735      4008.9775     -30957152       3572.2931      3572.2931      3572.2931      213.85347      3786.1465      213.85347      3786.1465      213.85347      3786.1465      4.5587024e+10  0.5            2710000        0              0              0              0
Averages over the last 751 of 1501 rows, steps 5160000 to 5310000:
Temp Press PotEng Density KinEng TotEng Lx Ly Lz Xlo Xhi Ylo Yhi Zlo Zhi Volume Dt
312.072 1.00168 -3.16803e+07 0.0161811 929.298 -3.16794e+07 3511.87 3511.87 3511.87 244.066 3755.93 244.066 3755.93 244.066 3755.93 4.33131e+10 0.5
Loop time of 42.1349 on 4 procs for 300000 steps with 1000 atoms

# run_style
run_style verlet

# write restart
write_restart ./pgnpmf/010/equpmf7.res
System init for write_restart ...
Generated 0 of 1 mixed pair_coeff terms from geometric mixing rule
