LAMMPS (23 Jun 2022 - Update 1)
# Read restart
read_restart ./pgnpmf/37/equpmf13.res
Reading restart file ...
  restart file = 23 Jun 2022, LAMMPS = 23 Jun 2022
  restoring atom style atomic from restart
  orthogonal box = (1049.8811 1049.8811 1049.8811) to (2950.1189 2950.1189 2950.1189)
  restoring pair style table from restart
  1000 atoms
  read_restart CPU = 0.006 seconds

# Settings

pair_style table spline 9941

pair_coeff 1 1 ./pgnpmf/N20.txt DE_GNP 75.6
pair_coeff 2 2 ./pgnpmf/N100.txt DE_GNP 115.92
pair_coeff 1 2 ./pgnpmf/mixed_potential.txt DE_GNP 95.66

#Neigh_list Calc Frequency

neigh_modify delay 0 every 1 check yes

# Saving Frequency (50 frames)

variable ts_save equal 5000

variable nts equal 5000/0.25
variable medium equal 20000*3
variable long equal 20000*5

# Dump
#dump_modify 1 first no sort id
dump 2 all cfg 50000 ./pgnpmf/37/equilibration/trajectory/dumpequ.tens_*.cfg mass type xs ys zs fx fy fz
dump_modify 2 element N20 N100

# thermo_style
thermo_style custom step temp press pe density ke etotal lx ly lz xlo xhi ylo yhi zlo zhi vol dt time cpu tpcpu spcpu cpuremain

# run info
timestep 0.25
thermo 5000

# fix

fix 1 all momentum 1000 linear 1 1 1 angular
variable T equal 300
fix 2 all nvt temp 300 370000 100.0

run 20000
Generated 0 of 1 mixed pair_coeff terms from geometric mixing rule
Unused restart file global fix info:
  fix style: npt, fix ID: 5
  update every 1 steps, delay 0 steps, check yes
Step          Temp          Press          PotEng        Density         KinEng         TotEng           Lx             Ly             Lz            Xlo            Xhi            Ylo            Yhi            Zlo            Zhi           Volume           Dt            Time           CPU           T/CPU          S/CPU         CPULeft
2660000   332.64677      1.0043726     -7991037.6      0.087603798    990.56529     -7990047        1900.2379      1900.2379      1900.2379      1049.8811      2950.1189      1049.8811      2950.1189      1049.8811      2950.1189      6.8615763e+09  0.25           710000         0              0              0              0
Loop time of 0.480052 on 4 procs for 20000 steps with 1000 atoms

unfix 2

fix 3 all nvt temp 370000 370000 $(100.0*dt) #iso 1.0 1.0 $(1000.0*dt)
fix 3 all nvt temp 370000 370000 25

run 100000
Generated 0 of 1 mixed pair_coeff terms from geometric mixing rule
Step          Temp          Press          PotEng        Density         KinEng         TotEng           Lx             Ly             Lz            Xlo            Xhi            Ylo            Yhi            Zlo            Zhi           Volume           Dt            Time           CPU           T/CPU          S/CPU         CPULeft
2680000   370195.5       14.138286     -8005074.9      0.087603798    1102379       -6902695.9      1900.2379      1900.2379      1900.2379      1049.8811      2950.1189      1049.8811      2950.1189      1049.8811      2950.1189      6.8615763e+09  0.25           715000         0              0              0              0
Averages over the last 11 of 21 rows, steps 2730000 to 2780000:
Temp Press PotEng Density KinEng TotEng Lx Ly Lz Xlo Xhi Ylo Yhi Zlo Zhi Volume Dt
367602 7.04071 -7.90598e+06 0.0876038 1.09466e+06 -6.81132e+06 1900.24 1900.24 1900.24 1049.88 2950.12 1049.88 2950.12 1049.88 2950.12 6.86158e+09 0.25
Loop time of 2.53482 on 4 procs for 100000 steps with 1000 atoms

unfix 3

fix 4 all nvt temp 370000 300 100.0

run 20000
Generated 0 of 1 mixed pair_coeff terms from geometric mixing rule
Step          Temp          Press          PotEng        Density         KinEng         TotEng           Lx             Ly             Lz            Xlo            Xhi            Ylo            Yhi            Zlo            Zhi           Volume           Dt            Time           CPU           T/CPU          S/CPU         CPULeft
2780000   375801.63      4.8279485     -7916896.2      0.087603798    1119073.1     -6797823.1      1900.2379      1900.2379      1900.2379      1049.8811      2950.1189      1049.8811      2950.1189      1049.8811      2950.1189      6.8615763e+09  0.25           740000         0              0              0              0
Loop time of 0.483815 on 4 procs for 20000 steps with 1000 atoms

unfix 4

fix 5 all npt temp 300 300 $(100.0*dt) iso 1.0 1.0 $(1000.0*dt)
fix 5 all npt temp 300 300 25 iso 1.0 1.0 $(1000.0*dt)
fix 5 all npt temp 300 300 25 iso 1.0 1.0 250

run 60000
Generated 0 of 1 mixed pair_coeff terms from geometric mixing rule
Step          Temp          Press          PotEng        Density         KinEng         TotEng           Lx             Ly             Lz            Xlo            Xhi            Ylo            Yhi            Zlo            Zhi           Volume           Dt            Time           CPU           T/CPU          S/CPU         CPULeft
2800000   8204.2027     -11.501699     -7992777.4      0.087603798    24430.715     -7968346.7      1900.2379      1900.2379      1900.2379      1049.8811      2950.1189      1049.8811      2950.1189      1049.8811      2950.1189      6.8615763e+09  0.25           745000         0              0              0              0
Averages over the last 7 of 13 rows, steps 2830000 to 2860000:
Temp Press PotEng Density KinEng TotEng Lx Ly Lz Xlo Xhi Ylo Yhi Zlo Zhi Volume Dt
335.263 1.00684 -8.64291e+06 0.096229 998.356 -8.64191e+06 1841.71 1841.71 1841.71 1079.14 2920.86 1079.14 2920.86 1079.14 2920.86 6.24709e+09 0.25
Loop time of 2.09026 on 4 procs for 60000 steps with 1000 atoms

# run_style
run_style verlet

# write restart
write_restart ./pgnpmf/37/equpmf14.res
System init for write_restart ...
Generated 0 of 1 mixed pair_coeff terms from geometric mixing rule
