LAMMPS (23 Jun 2022 - Update 1)
# Read restart
read_restart ./pgnpmf/37/equpmf48.res
Reading restart file ...
  restart file = 23 Jun 2022, LAMMPS = 23 Jun 2022
  restoring atom style atomic from restart
  orthogonal box = (1543.7337 1543.7337 1543.7337) to (2456.2663 2456.2663 2456.2663)
  restoring pair style table from restart
  1000 atoms
  read_restart CPU = 0.005 seconds

# Settings

pair_style table spline 9941

pair_coeff 1 1 ./pgnpmf/N20.txt DE_GNP 75.6
pair_coeff 2 2 ./pgnpmf/N100.txt DE_GNP 115.92
pair_coeff 1 2 ./pgnpmf/mixed_potential.txt DE_GNP 95.66

#Neigh_list Calc Frequency

neigh_modify delay 0 every 1 check yes

# Saving Frequency (50 frames)

variable ts_save equal 5000

variable nts equal 5000/0.25
variable medium equal 20000*3
variable long equal 20000*5

# Dump
#dump_modify 1 first no sort id
dump 2 all cfg 50000 ./pgnpmf/37/equilibration/trajectory/dumpequ.tens_*.cfg mass type xs ys zs fx fy fz
dump_modify 2 element N20 N100

# thermo_style
thermo_style custom step temp press pe density ke etotal lx ly lz xlo xhi ylo yhi zlo zhi vol dt time cpu tpcpu spcpu cpuremain

# run info
timestep 0.25
thermo 5000

# fix

fix 1 all momentum 1000 linear 1 1 1 angular
variable T equal 300
fix 2 all nvt temp 300 370000 100.0

run 20000
Generated 0 of 1 mixed pair_coeff terms from geometric mixing rule
Unused restart file global fix info:
  fix style: npt, fix ID: 5
  update every 1 steps, delay 0 steps, check yes
Step          Temp          Press          PotEng        Density         KinEng         TotEng           Lx             Ly             Lz            Xlo            Xhi            Ylo            Yhi            Zlo            Zhi           Volume           Dt            Time           CPU           T/CPU          S/CPU         CPULeft
9660000   342.24533      0.50173029    -31689036       0.79104606     1019.1482     -31688017       912.53253      912.53253      912.53253      1543.7337      2456.2663      1543.7337      2456.2663      1543.7337      2456.2663      7.5988008e+08  0.25           2460000        0              0              0              0
Loop time of 0.957142 on 4 procs for 20000 steps with 1000 atoms

unfix 2

fix 3 all nvt temp 370000 370000 $(100.0*dt) #iso 1.0 1.0 $(1000.0*dt)
fix 3 all nvt temp 370000 370000 25

run 100000
Generated 0 of 1 mixed pair_coeff terms from geometric mixing rule
Step          Temp          Press          PotEng        Density         KinEng         TotEng           Lx             Ly             Lz            Xlo            Xhi            Ylo            Yhi            Zlo            Zhi           Volume           Dt            Time           CPU           T/CPU          S/CPU         CPULeft
9680000   365533.67     -40.205779     -31781199       0.79104606     1088496.8     -30692703       912.53253      912.53253      912.53253      1543.7337      2456.2663      1543.7337      2456.2663      1543.7337      2456.2663      7.5988008e+08  0.25           2465000        0              0              0              0
Averages over the last 11 of 21 rows, steps 9730000 to 9780000:
Temp Press PotEng Density KinEng TotEng Lx Ly Lz Xlo Xhi Ylo Yhi Zlo Zhi Volume Dt
375850 54.2566 -3.17375e+07 0.791046 1.11922e+06 -3.06182e+07 912.533 912.533 912.533 1543.73 2456.27 1543.73 2456.27 1543.73 2456.27 7.5988e+08 0.25
Loop time of 4.81874 on 4 procs for 100000 steps with 1000 atoms

unfix 3

fix 4 all nvt temp 370000 300 100.0

run 20000
Generated 0 of 1 mixed pair_coeff terms from geometric mixing rule
Step          Temp          Press          PotEng        Density         KinEng         TotEng           Lx             Ly             Lz            Xlo            Xhi            Ylo            Yhi            Zlo            Zhi           Volume           Dt            Time           CPU           T/CPU          S/CPU         CPULeft
9780000   367025.69     -59.379737     -31582765       0.79104606     1092939.8     -30489825       912.53253      912.53253      912.53253      1543.7337      2456.2663      1543.7337      2456.2663      1543.7337      2456.2663      7.5988008e+08  0.25           2490000        0              0              0              0
Loop time of 0.96335 on 4 procs for 20000 steps with 1000 atoms

unfix 4

fix 5 all npt temp 300 300 $(100.0*dt) iso 1.0 1.0 $(1000.0*dt)
fix 5 all npt temp 300 300 25 iso 1.0 1.0 $(1000.0*dt)
fix 5 all npt temp 300 300 25 iso 1.0 1.0 250

run 60000
Generated 0 of 1 mixed pair_coeff terms from geometric mixing rule
Step          Temp          Press          PotEng        Density         KinEng         TotEng           Lx             Ly             Lz            Xlo            Xhi            Ylo            Yhi            Zlo            Zhi           Volume           Dt            Time           CPU           T/CPU          S/CPU         CPULeft
9800000   9080.9738     -378.7901      -31800420       0.79104606     27041.589     -31773379       912.53253      912.53253      912.53253      1543.7337      2456.2663      1543.7337      2456.2663      1543.7337      2456.2663      7.5988008e+08  0.25           2495000        0              0              0              0
Averages over the last 7 of 13 rows, steps 9830000 to 9860000:
Temp Press PotEng Density KinEng TotEng Lx Ly Lz Xlo Xhi Ylo Yhi Zlo Zhi Volume Dt
343.936 1.04665 -3.22575e+07 0.823942 1024.18 -3.22565e+07 900.224 900.224 900.224 1549.89 2450.11 1549.89 2450.11 1549.89 2450.11 7.29546e+08 0.25
Loop time of 3.59408 on 4 procs for 60000 steps with 1000 atoms

# run_style
run_style verlet

# write restart
write_restart ./pgnpmf/37/equpmf49.res
System init for write_restart ...
Generated 0 of 1 mixed pair_coeff terms from geometric mixing rule
