LAMMPS (23 Jun 2022 - Update 1)
# Read restart
read_restart ./pgnpmf/37/equpmf27.res
Reading restart file ...
  restart file = 23 Jun 2022, LAMMPS = 23 Jun 2022
  restoring atom style atomic from restart
  orthogonal box = (1354.0136 1354.0136 1354.0136) to (2645.9864 2645.9864 2645.9864)
  restoring pair style table from restart
  1000 atoms
  read_restart CPU = 0.010 seconds

# Settings

pair_style table spline 9941

pair_coeff 1 1 ./pgnpmf/N20.txt DE_GNP 75.6
pair_coeff 2 2 ./pgnpmf/N100.txt DE_GNP 115.92
pair_coeff 1 2 ./pgnpmf/mixed_potential.txt DE_GNP 95.66

#Neigh_list Calc Frequency

neigh_modify delay 0 every 1 check yes

# Saving Frequency (50 frames)

variable ts_save equal 5000

variable nts equal 5000/0.25
variable medium equal 20000*3
variable long equal 20000*5

# Dump
#dump_modify 1 first no sort id
dump 2 all cfg 50000 ./pgnpmf/37/equilibration/trajectory/dumpequ.tens_*.cfg mass type xs ys zs fx fy fz
dump_modify 2 element N20 N100

# thermo_style
thermo_style custom step temp press pe density ke etotal lx ly lz xlo xhi ylo yhi zlo zhi vol dt time cpu tpcpu spcpu cpuremain

# run info
timestep 0.25
thermo 5000

# fix

fix 1 all momentum 1000 linear 1 1 1 angular
variable T equal 300
fix 2 all nvt temp 300 370000 100.0

run 20000
Generated 0 of 1 mixed pair_coeff terms from geometric mixing rule
Unused restart file global fix info:
  fix style: npt, fix ID: 5
  update every 1 steps, delay 0 steps, check yes
Step          Temp          Press          PotEng        Density         KinEng         TotEng           Lx             Ly             Lz            Xlo            Xhi            Ylo            Yhi            Zlo            Zhi           Volume           Dt            Time           CPU           T/CPU          S/CPU         CPULeft
5460000   339.27578      1.1788984     -21219710       0.27873192     1010.3053     -21218700       1291.9728      1291.9728      1291.9728      1354.0136      2645.9864      1354.0136      2645.9864      1354.0136      2645.9864      2.1565529e+09  0.25           1410000        0              0              0              0
Loop time of 0.723217 on 4 procs for 20000 steps with 1000 atoms

unfix 2

fix 3 all nvt temp 370000 370000 $(100.0*dt) #iso 1.0 1.0 $(1000.0*dt)
fix 3 all nvt temp 370000 370000 25

run 100000
Generated 0 of 1 mixed pair_coeff terms from geometric mixing rule
Step          Temp          Press          PotEng        Density         KinEng         TotEng           Lx             Ly             Lz            Xlo            Xhi            Ylo            Yhi            Zlo            Zhi           Volume           Dt            Time           CPU           T/CPU          S/CPU         CPULeft
5480000   365966.03     -17.323177     -21359880       0.27873192     1089784.4     -20270096       1291.9728      1291.9728      1291.9728      1354.0136      2645.9864      1354.0136      2645.9864      1354.0136      2645.9864      2.1565529e+09  0.25           1415000        0              0              0              0
Averages over the last 11 of 21 rows, steps 5530000 to 5580000:
Temp Press PotEng Density KinEng TotEng Lx Ly Lz Xlo Xhi Ylo Yhi Zlo Zhi Volume Dt
371889 5.23249 -2.15693e+07 0.278732 1.10742e+06 -2.04619e+07 1291.97 1291.97 1291.97 1354.01 2645.99 1354.01 2645.99 1354.01 2645.99 2.15655e+09 0.25
Loop time of 3.65203 on 4 procs for 100000 steps with 1000 atoms

unfix 3

fix 4 all nvt temp 370000 300 100.0

run 20000
Generated 0 of 1 mixed pair_coeff terms from geometric mixing rule
Step          Temp          Press          PotEng        Density         KinEng         TotEng           Lx             Ly             Lz            Xlo            Xhi            Ylo            Yhi            Zlo            Zhi           Volume           Dt            Time           CPU           T/CPU          S/CPU         CPULeft
5580000   366105.03     -10.135254     -21431340       0.27873192     1090198.3     -20341142       1291.9728      1291.9728      1291.9728      1354.0136      2645.9864      1354.0136      2645.9864      1354.0136      2645.9864      2.1565529e+09  0.25           1440000        0              0              0              0
Loop time of 0.732388 on 4 procs for 20000 steps with 1000 atoms

unfix 4

fix 5 all npt temp 300 300 $(100.0*dt) iso 1.0 1.0 $(1000.0*dt)
fix 5 all npt temp 300 300 25 iso 1.0 1.0 $(1000.0*dt)
fix 5 all npt temp 300 300 25 iso 1.0 1.0 250

run 60000
Generated 0 of 1 mixed pair_coeff terms from geometric mixing rule
Step          Temp          Press          PotEng        Density         KinEng         TotEng           Lx             Ly             Lz            Xlo            Xhi            Ylo            Yhi            Zlo            Zhi           Volume           Dt            Time           CPU           T/CPU          S/CPU         CPULeft
5600000   8789.7991     -89.935528     -21526988       0.27873192     26174.521     -21500814       1291.9728      1291.9728      1291.9728      1354.0136      2645.9864      1354.0136      2645.9864      1354.0136      2645.9864      2.1565529e+09  0.25           1445000        0              0              0              0
Averages over the last 7 of 13 rows, steps 5630000 to 5660000:
Temp Press PotEng Density KinEng TotEng Lx Ly Lz Xlo Xhi Ylo Yhi Zlo Zhi Volume Dt
343.255 0.891782 -2.21661e+07 0.2938 1022.15 -2.21651e+07 1269.5 1269.5 1269.5 1365.25 2634.75 1365.25 2634.75 1365.25 2634.75 2.04598e+09 0.25
Loop time of 2.85426 on 4 procs for 60000 steps with 1000 atoms

# run_style
run_style verlet

# write restart
write_restart ./pgnpmf/37/equpmf28.res
System init for write_restart ...
Generated 0 of 1 mixed pair_coeff terms from geometric mixing rule
