LAMMPS (23 Jun 2022 - Update 1)
# Read restart
read_restart ./pgnpmf/37/equpmf64.res
Reading restart file ...
  restart file = 23 Jun 2022, LAMMPS = 23 Jun 2022
  restoring atom style atomic from restart
  orthogonal box = (1624.7357 1624.7357 1624.7357) to (2375.2643 2375.2643 2375.2643)
  restoring pair style table from restart
  1000 atoms
  read_restart CPU = 0.004 seconds

# Settings

pair_style table spline 9941

pair_coeff 1 1 ./pgnpmf/N20.txt DE_GNP 75.6
pair_coeff 2 2 ./pgnpmf/N100.txt DE_GNP 115.92
pair_coeff 1 2 ./pgnpmf/mixed_potential.txt DE_GNP 95.66

#Neigh_list Calc Frequency

neigh_modify delay 0 every 1 check yes

# Saving Frequency (50 frames)

variable ts_save equal 5000

variable nts equal 5000/0.25
variable medium equal 20000*3
variable long equal 20000*5

# Dump
#dump_modify 1 first no sort id
dump 2 all cfg 50000 ./pgnpmf/37/equilibration/trajectory/dumpequ.tens_*.cfg mass type xs ys zs fx fy fz
dump_modify 2 element N20 N100

# thermo_style
thermo_style custom step temp press pe density ke etotal lx ly lz xlo xhi ylo yhi zlo zhi vol dt time cpu tpcpu spcpu cpuremain

# run info
timestep 0.25
thermo 5000

# fix

fix 1 all momentum 1000 linear 1 1 1 angular
variable T equal 300
fix 2 all nvt temp 300 370000 100.0

run 20000
Generated 0 of 1 mixed pair_coeff terms from geometric mixing rule
Unused restart file global fix info:
  fix style: npt, fix ID: 5
  update every 1 steps, delay 0 steps, check yes
Step          Temp          Press          PotEng        Density         KinEng         TotEng           Lx             Ly             Lz            Xlo            Xhi            Ylo            Yhi            Zlo            Zhi           Volume           Dt            Time           CPU           T/CPU          S/CPU         CPULeft
12860000   337.48735      0.016221928   -38923997       1.4218212      1004.9797     -38922992       750.52867      750.52867      750.52867      1624.7357      2375.2643      1624.7357      2375.2643      1624.7357      2375.2643      4.2276776e+08  0.25           3260000        0              0              0              0
Loop time of 1.19038 on 4 procs for 20000 steps with 1000 atoms

unfix 2

fix 3 all nvt temp 370000 370000 $(100.0*dt) #iso 1.0 1.0 $(1000.0*dt)
fix 3 all nvt temp 370000 370000 25

run 100000
Generated 0 of 1 mixed pair_coeff terms from geometric mixing rule
Step          Temp          Press          PotEng        Density         KinEng         TotEng           Lx             Ly             Lz            Xlo            Xhi            Ylo            Yhi            Zlo            Zhi           Volume           Dt            Time           CPU           T/CPU          S/CPU         CPULeft
12880000   366882.08      211.40753     -38935110       1.4218212      1092512.2     -37842598       750.52867      750.52867      750.52867      1624.7357      2375.2643      1624.7357      2375.2643      1624.7357      2375.2643      4.2276776e+08  0.25           3265000        0              0              0              0
Averages over the last 11 of 21 rows, steps 12930000 to 12980000:
Temp Press PotEng Density KinEng TotEng Lx Ly Lz Xlo Xhi Ylo Yhi Zlo Zhi Volume Dt
367337 392.039 -3.87441e+07 1.42182 1.09387e+06 -3.76503e+07 750.529 750.529 750.529 1624.74 2375.26 1624.74 2375.26 1624.74 2375.26 4.22768e+08 0.25
Loop time of 6.00312 on 4 procs for 100000 steps with 1000 atoms

unfix 3

fix 4 all nvt temp 370000 300 100.0

run 20000
Generated 0 of 1 mixed pair_coeff terms from geometric mixing rule
Step          Temp          Press          PotEng        Density         KinEng         TotEng           Lx             Ly             Lz            Xlo            Xhi            Ylo            Yhi            Zlo            Zhi           Volume           Dt            Time           CPU           T/CPU          S/CPU         CPULeft
12980000   371399.69      394.10968     -38587157       1.4218212      1105964.9     -37481192       750.52867      750.52867      750.52867      1624.7357      2375.2643      1624.7357      2375.2643      1624.7357      2375.2643      4.2276776e+08  0.25           3290000        0              0              0              0
Loop time of 1.19651 on 4 procs for 20000 steps with 1000 atoms

unfix 4

fix 5 all npt temp 300 300 $(100.0*dt) iso 1.0 1.0 $(1000.0*dt)
fix 5 all npt temp 300 300 25 iso 1.0 1.0 $(1000.0*dt)
fix 5 all npt temp 300 300 25 iso 1.0 1.0 250

run 60000
Generated 0 of 1 mixed pair_coeff terms from geometric mixing rule
Step          Temp          Press          PotEng        Density         KinEng         TotEng           Lx             Ly             Lz            Xlo            Xhi            Ylo            Yhi            Zlo            Zhi           Volume           Dt            Time           CPU           T/CPU          S/CPU         CPULeft
13000000   9438.4679     -507.54614     -38927406       1.4218212      28106.146     -38899299       750.52867      750.52867      750.52867      1624.7357      2375.2643      1624.7357      2375.2643      1624.7357      2375.2643      4.2276776e+08  0.25           3295000        0              0              0              0
Averages over the last 7 of 13 rows, steps 13030000 to 13060000:
Temp Press PotEng Density KinEng TotEng Lx Ly Lz Xlo Xhi Ylo Yhi Zlo Zhi Volume Dt
340.524 -0.873599 -3.94374e+07 1.45568 1014.02 -3.94364e+07 744.664 744.664 744.664 1627.67 2372.33 1627.67 2372.33 1627.67 2372.33 4.12934e+08 0.25
Loop time of 4.27398 on 4 procs for 60000 steps with 1000 atoms

# run_style
run_style verlet

# write restart
write_restart ./pgnpmf/37/equpmf65.res
System init for write_restart ...
Generated 0 of 1 mixed pair_coeff terms from geometric mixing rule
