LAMMPS (23 Jun 2022 - Update 1)
# Read restart
read_restart ./pgnpmf/37/equpmf21.res
Reading restart file ...
  restart file = 23 Jun 2022, LAMMPS = 23 Jun 2022
  restoring atom style atomic from restart
  orthogonal box = (1260.6884 1260.6884 1260.6884) to (2739.3116 2739.3116 2739.3116)
  restoring pair style table from restart
  1000 atoms
  read_restart CPU = 0.004 seconds

# Settings

pair_style table spline 9941

pair_coeff 1 1 ./pgnpmf/N20.txt DE_GNP 75.6
pair_coeff 2 2 ./pgnpmf/N100.txt DE_GNP 115.92
pair_coeff 1 2 ./pgnpmf/mixed_potential.txt DE_GNP 95.66

#Neigh_list Calc Frequency

neigh_modify delay 0 every 1 check yes

# Saving Frequency (50 frames)

variable ts_save equal 5000

variable nts equal 5000/0.25
variable medium equal 20000*3
variable long equal 20000*5

# Dump
#dump_modify 1 first no sort id
dump 2 all cfg 50000 ./pgnpmf/37/equilibration/trajectory/dumpequ.tens_*.cfg mass type xs ys zs fx fy fz
dump_modify 2 element N20 N100

# thermo_style
thermo_style custom step temp press pe density ke etotal lx ly lz xlo xhi ylo yhi zlo zhi vol dt time cpu tpcpu spcpu cpuremain

# run info
timestep 0.25
thermo 5000

# fix

fix 1 all momentum 1000 linear 1 1 1 angular
variable T equal 300
fix 2 all nvt temp 300 370000 100.0

run 20000
Generated 0 of 1 mixed pair_coeff terms from geometric mixing rule
Unused restart file global fix info:
  fix style: npt, fix ID: 5
  update every 1 steps, delay 0 steps, check yes
Step          Temp          Press          PotEng        Density         KinEng         TotEng           Lx             Ly             Lz            Xlo            Xhi            Ylo            Yhi            Zlo            Zhi           Volume           Dt            Time           CPU           T/CPU          S/CPU         CPULeft
4260000   335.55283      1.0531244     -13499013       0.18594065     999.21901     -13498014       1478.6231      1478.6231      1478.6231      1260.6884      2739.3116      1260.6884      2739.3116      1260.6884      2739.3116      3.2327528e+09  0.25           1110000        0              0              0              0
Loop time of 0.586314 on 4 procs for 20000 steps with 1000 atoms

unfix 2

fix 3 all nvt temp 370000 370000 $(100.0*dt) #iso 1.0 1.0 $(1000.0*dt)
fix 3 all nvt temp 370000 370000 25

run 100000
Generated 0 of 1 mixed pair_coeff terms from geometric mixing rule
Step          Temp          Press          PotEng        Density         KinEng         TotEng           Lx             Ly             Lz            Xlo            Xhi            Ylo            Yhi            Zlo            Zhi           Volume           Dt            Time           CPU           T/CPU          S/CPU         CPULeft
4280000   367924.59      3.5820738     -13561519       0.18594065     1095616.6     -12465902       1478.6231      1478.6231      1478.6231      1260.6884      2739.3116      1260.6884      2739.3116      1260.6884      2739.3116      3.2327528e+09  0.25           1115000        0              0              0              0
Averages over the last 11 of 21 rows, steps 4330000 to 4380000:
Temp Press PotEng Density KinEng TotEng Lx Ly Lz Xlo Xhi Ylo Yhi Zlo Zhi Volume Dt
361963 9.20876 -1.38182e+07 0.185941 1.07786e+06 -1.27403e+07 1478.62 1478.62 1478.62 1260.69 2739.31 1260.69 2739.31 1260.69 2739.31 3.23275e+09 0.25
Loop time of 2.98787 on 4 procs for 100000 steps with 1000 atoms

unfix 3

fix 4 all nvt temp 370000 300 100.0

run 20000
Generated 0 of 1 mixed pair_coeff terms from geometric mixing rule
Step          Temp          Press          PotEng        Density         KinEng         TotEng           Lx             Ly             Lz            Xlo            Xhi            Ylo            Yhi            Zlo            Zhi           Volume           Dt            Time           CPU           T/CPU          S/CPU         CPULeft
4380000   358748.84      4.3387438     -13703299       0.18594065     1068292.8     -12635006       1478.6231      1478.6231      1478.6231      1260.6884      2739.3116      1260.6884      2739.3116      1260.6884      2739.3116      3.2327528e+09  0.25           1140000        0              0              0              0
Loop time of 0.598656 on 4 procs for 20000 steps with 1000 atoms

unfix 4

fix 5 all npt temp 300 300 $(100.0*dt) iso 1.0 1.0 $(1000.0*dt)
fix 5 all npt temp 300 300 25 iso 1.0 1.0 $(1000.0*dt)
fix 5 all npt temp 300 300 25 iso 1.0 1.0 250

run 60000
Generated 0 of 1 mixed pair_coeff terms from geometric mixing rule
Step          Temp          Press          PotEng        Density         KinEng         TotEng           Lx             Ly             Lz            Xlo            Xhi            Ylo            Yhi            Zlo            Zhi           Volume           Dt            Time           CPU           T/CPU          S/CPU         CPULeft
4400000   8507.3234     -45.771685     -13797832       0.18594065     25333.356     -13772498       1478.6231      1478.6231      1478.6231      1260.6884      2739.3116      1260.6884      2739.3116      1260.6884      2739.3116      3.2327528e+09  0.25           1145000        0              0              0              0
Averages over the last 7 of 13 rows, steps 4430000 to 4460000:
Temp Press PotEng Density KinEng TotEng Lx Ly Lz Xlo Xhi Ylo Yhi Zlo Zhi Volume Dt
339.212 0.977721 -1.46382e+07 0.200073 1010.11 -1.46372e+07 1442.96 1442.96 1442.96 1278.52 2721.48 1278.52 2721.48 1278.52 2721.48 3.00449e+09 0.25
Loop time of 2.40139 on 4 procs for 60000 steps with 1000 atoms

# run_style
run_style verlet

# write restart
write_restart ./pgnpmf/37/equpmf22.res
System init for write_restart ...
Generated 0 of 1 mixed pair_coeff terms from geometric mixing rule
