LAMMPS (23 Jun 2022 - Update 1)
# Read restart
read_restart ./pgnpmf/37/equpmf25.res
Reading restart file ...
  restart file = 23 Jun 2022, LAMMPS = 23 Jun 2022
  restoring atom style atomic from restart
  orthogonal box = (1326.9515 1326.9515 1326.9515) to (2673.0485 2673.0485 2673.0485)
  restoring pair style table from restart
  1000 atoms
  read_restart CPU = 0.006 seconds

# Settings

pair_style table spline 9941

pair_coeff 1 1 ./pgnpmf/N20.txt DE_GNP 75.6
pair_coeff 2 2 ./pgnpmf/N100.txt DE_GNP 115.92
pair_coeff 1 2 ./pgnpmf/mixed_potential.txt DE_GNP 95.66

#Neigh_list Calc Frequency

neigh_modify delay 0 every 1 check yes

# Saving Frequency (50 frames)

variable ts_save equal 5000

variable nts equal 5000/0.25
variable medium equal 20000*3
variable long equal 20000*5

# Dump
#dump_modify 1 first no sort id
dump 2 all cfg 50000 ./pgnpmf/37/equilibration/trajectory/dumpequ.tens_*.cfg mass type xs ys zs fx fy fz
dump_modify 2 element N20 N100

# thermo_style
thermo_style custom step temp press pe density ke etotal lx ly lz xlo xhi ylo yhi zlo zhi vol dt time cpu tpcpu spcpu cpuremain

# run info
timestep 0.25
thermo 5000

# fix

fix 1 all momentum 1000 linear 1 1 1 angular
variable T equal 300
fix 2 all nvt temp 300 370000 100.0

run 20000
Generated 0 of 1 mixed pair_coeff terms from geometric mixing rule
Unused restart file global fix info:
  fix style: npt, fix ID: 5
  update every 1 steps, delay 0 steps, check yes
Step          Temp          Press          PotEng        Density         KinEng         TotEng           Lx             Ly             Lz            Xlo            Xhi            Ylo            Yhi            Zlo            Zhi           Volume           Dt            Time           CPU           T/CPU          S/CPU         CPULeft
5060000   338.86752      0.84114385    -18665875       0.24644377     1009.0896     -18664866       1346.0969      1346.0969      1346.0969      1326.9515      2673.0485      1326.9515      2673.0485      1326.9515      2673.0485      2.4390966e+09  0.25           1310000        0              0              0              0
Loop time of 0.674078 on 4 procs for 20000 steps with 1000 atoms

unfix 2

fix 3 all nvt temp 370000 370000 $(100.0*dt) #iso 1.0 1.0 $(1000.0*dt)
fix 3 all nvt temp 370000 370000 25

run 100000
Generated 0 of 1 mixed pair_coeff terms from geometric mixing rule
Step          Temp          Press          PotEng        Density         KinEng         TotEng           Lx             Ly             Lz            Xlo            Xhi            Ylo            Yhi            Zlo            Zhi           Volume           Dt            Time           CPU           T/CPU          S/CPU         CPULeft
5080000   366369.33     -8.4208268     -18758525       0.24644377     1090985.3     -17667540       1346.0969      1346.0969      1346.0969      1326.9515      2673.0485      1326.9515      2673.0485      1326.9515      2673.0485      2.4390966e+09  0.25           1315000        0              0              0              0
Averages over the last 11 of 21 rows, steps 5130000 to 5180000:
Temp Press PotEng Density KinEng TotEng Lx Ly Lz Xlo Xhi Ylo Yhi Zlo Zhi Volume Dt
378793 10.1815 -1.9042e+07 0.246444 1.12798e+06 -1.7914e+07 1346.1 1346.1 1346.1 1326.95 2673.05 1326.95 2673.05 1326.95 2673.05 2.4391e+09 0.25
Loop time of 3.47184 on 4 procs for 100000 steps with 1000 atoms

unfix 3

fix 4 all nvt temp 370000 300 100.0

run 20000
Generated 0 of 1 mixed pair_coeff terms from geometric mixing rule
Step          Temp          Press          PotEng        Density         KinEng         TotEng           Lx             Ly             Lz            Xlo            Xhi            Ylo            Yhi            Zlo            Zhi           Volume           Dt            Time           CPU           T/CPU          S/CPU         CPULeft
5180000   373471.05      4.9791035     -18841083       0.24644377     1112133       -17728950       1346.0969      1346.0969      1346.0969      1326.9515      2673.0485      1326.9515      2673.0485      1326.9515      2673.0485      2.4390966e+09  0.25           1340000        0              0              0              0
Loop time of 0.68928 on 4 procs for 20000 steps with 1000 atoms

unfix 4

fix 5 all npt temp 300 300 $(100.0*dt) iso 1.0 1.0 $(1000.0*dt)
fix 5 all npt temp 300 300 25 iso 1.0 1.0 $(1000.0*dt)
fix 5 all npt temp 300 300 25 iso 1.0 1.0 250

run 60000
Generated 0 of 1 mixed pair_coeff terms from geometric mixing rule
Step          Temp          Press          PotEng        Density         KinEng         TotEng           Lx             Ly             Lz            Xlo            Xhi            Ylo            Yhi            Zlo            Zhi           Volume           Dt            Time           CPU           T/CPU          S/CPU         CPULeft
5200000   8660.6773     -81.128328     -19005923       0.24644377     25790.018     -18980133       1346.0969      1346.0969      1346.0969      1326.9515      2673.0485      1326.9515      2673.0485      1326.9515      2673.0485      2.4390966e+09  0.25           1345000        0              0              0              0
Averages over the last 7 of 13 rows, steps 5230000 to 5260000:
Temp Press PotEng Density KinEng TotEng Lx Ly Lz Xlo Xhi Ylo Yhi Zlo Zhi Volume Dt
341.657 0.80965 -1.95846e+07 0.261678 1017.4 -1.95836e+07 1319.46 1319.46 1319.46 1340.27 2659.73 1340.27 2659.73 1340.27 2659.73 2.29714e+09 0.25
Loop time of 2.6906 on 4 procs for 60000 steps with 1000 atoms

# run_style
run_style verlet

# write restart
write_restart ./pgnpmf/37/equpmf26.res
System init for write_restart ...
Generated 0 of 1 mixed pair_coeff terms from geometric mixing rule
