LAMMPS (23 Jun 2022 - Update 1)
# Read restart
read_restart ./pgnpmf/37/equpmf24.res
Reading restart file ...
  restart file = 23 Jun 2022, LAMMPS = 23 Jun 2022
  restoring atom style atomic from restart
  orthogonal box = (1312.2043 1312.2043 1312.2043) to (2687.7957 2687.7957 2687.7957)
  restoring pair style table from restart
  1000 atoms
  read_restart CPU = 0.004 seconds

# Settings

pair_style table spline 9941

pair_coeff 1 1 ./pgnpmf/N20.txt DE_GNP 75.6
pair_coeff 2 2 ./pgnpmf/N100.txt DE_GNP 115.92
pair_coeff 1 2 ./pgnpmf/mixed_potential.txt DE_GNP 95.66

#Neigh_list Calc Frequency

neigh_modify delay 0 every 1 check yes

# Saving Frequency (50 frames)

variable ts_save equal 5000

variable nts equal 5000/0.25
variable medium equal 20000*3
variable long equal 20000*5

# Dump
#dump_modify 1 first no sort id
dump 2 all cfg 50000 ./pgnpmf/37/equilibration/trajectory/dumpequ.tens_*.cfg mass type xs ys zs fx fy fz
dump_modify 2 element N20 N100

# thermo_style
thermo_style custom step temp press pe density ke etotal lx ly lz xlo xhi ylo yhi zlo zhi vol dt time cpu tpcpu spcpu cpuremain

# run info
timestep 0.25
thermo 5000

# fix

fix 1 all momentum 1000 linear 1 1 1 angular
variable T equal 300
fix 2 all nvt temp 300 370000 100.0

run 20000
Generated 0 of 1 mixed pair_coeff terms from geometric mixing rule
Unused restart file global fix info:
  fix style: npt, fix ID: 5
  update every 1 steps, delay 0 steps, check yes
Step          Temp          Press          PotEng        Density         KinEng         TotEng           Lx             Ly             Lz            Xlo            Xhi            Ylo            Yhi            Zlo            Zhi           Volume           Dt            Time           CPU           T/CPU          S/CPU         CPULeft
4860000   339.67354      1.042048      -17242642       0.230929       1011.4898     -17241630       1375.5914      1375.5914      1375.5914      1312.2043      2687.7957      1312.2043      2687.7957      1312.2043      2687.7957      2.6029652e+09  0.25           1260000        0              0              0              0
Loop time of 0.680811 on 4 procs for 20000 steps with 1000 atoms

unfix 2

fix 3 all nvt temp 370000 370000 $(100.0*dt) #iso 1.0 1.0 $(1000.0*dt)
fix 3 all nvt temp 370000 370000 25

run 100000
Generated 0 of 1 mixed pair_coeff terms from geometric mixing rule
Step          Temp          Press          PotEng        Density         KinEng         TotEng           Lx             Ly             Lz            Xlo            Xhi            Ylo            Yhi            Zlo            Zhi           Volume           Dt            Time           CPU           T/CPU          S/CPU         CPULeft
4880000   366404.75     -1.8325009     -17308200       0.230929       1091090.8     -16217109       1375.5914      1375.5914      1375.5914      1312.2043      2687.7957      1312.2043      2687.7957      1312.2043      2687.7957      2.6029652e+09  0.25           1265000        0              0              0              0
Averages over the last 11 of 21 rows, steps 4930000 to 4980000:
Temp Press PotEng Density KinEng TotEng Lx Ly Lz Xlo Xhi Ylo Yhi Zlo Zhi Volume Dt
368454 8.9525 -1.7761e+07 0.230929 1.09719e+06 -1.66638e+07 1375.59 1375.59 1375.59 1312.2 2687.8 1312.2 2687.8 1312.2 2687.8 2.60297e+09 0.25
Loop time of 3.40977 on 4 procs for 100000 steps with 1000 atoms

unfix 3

fix 4 all nvt temp 370000 300 100.0

run 20000
Generated 0 of 1 mixed pair_coeff terms from geometric mixing rule
Step          Temp          Press          PotEng        Density         KinEng         TotEng           Lx             Ly             Lz            Xlo            Xhi            Ylo            Yhi            Zlo            Zhi           Volume           Dt            Time           CPU           T/CPU          S/CPU         CPULeft
4980000   365842.02      11.506374     -17644630       0.230929       1089415.1     -16555215       1375.5914      1375.5914      1375.5914      1312.2043      2687.7957      1312.2043      2687.7957      1312.2043      2687.7957      2.6029652e+09  0.25           1290000        0              0              0              0
Loop time of 0.672985 on 4 procs for 20000 steps with 1000 atoms

unfix 4

fix 5 all npt temp 300 300 $(100.0*dt) iso 1.0 1.0 $(1000.0*dt)
fix 5 all npt temp 300 300 25 iso 1.0 1.0 $(1000.0*dt)
fix 5 all npt temp 300 300 25 iso 1.0 1.0 250

run 60000
Generated 0 of 1 mixed pair_coeff terms from geometric mixing rule
Step          Temp          Press          PotEng        Density         KinEng         TotEng           Lx             Ly             Lz            Xlo            Xhi            Ylo            Yhi            Zlo            Zhi           Volume           Dt            Time           CPU           T/CPU          S/CPU         CPULeft
5000000   8667.3718     -66.290412     -17905892       0.230929       25809.953     -17880082       1375.5914      1375.5914      1375.5914      1312.2043      2687.7957      1312.2043      2687.7957      1312.2043      2687.7957      2.6029652e+09  0.25           1295000        0              0              0              0
Averages over the last 7 of 13 rows, steps 5030000 to 5060000:
Temp Press PotEng Density KinEng TotEng Lx Ly Lz Xlo Xhi Ylo Yhi Zlo Zhi Volume Dt
340.497 0.919362 -1.85744e+07 0.244862 1013.94 -1.85734e+07 1349 1349 1349 1325.5 2674.5 1325.5 2674.5 1325.5 2674.5 2.4549e+09 0.25
Loop time of 2.72896 on 4 procs for 60000 steps with 1000 atoms

# run_style
run_style verlet

# write restart
write_restart ./pgnpmf/37/equpmf25.res
System init for write_restart ...
Generated 0 of 1 mixed pair_coeff terms from geometric mixing rule
