LAMMPS (23 Jun 2022 - Update 1)
# Read restart
read_restart ./pgnpmf/37/equpmf5.res
Reading restart file ...
  restart file = 23 Jun 2022, LAMMPS = 23 Jun 2022
  restoring atom style atomic from restart
  orthogonal box = (610.79018 610.79018 610.79018) to (3389.2098 3389.2098 3389.2098)
  restoring pair style table from restart
  1000 atoms
  read_restart CPU = 0.005 seconds

# Settings

pair_style table spline 9941

pair_coeff 1 1 ./pgnpmf/N20.txt DE_GNP 75.6
pair_coeff 2 2 ./pgnpmf/N100.txt DE_GNP 115.92
pair_coeff 1 2 ./pgnpmf/mixed_potential.txt DE_GNP 95.66

#Neigh_list Calc Frequency

neigh_modify delay 0 every 1 check yes

# Saving Frequency (50 frames)

variable ts_save equal 5000

variable nts equal 5000/0.25
variable medium equal 20000*3
variable long equal 20000*5

# Dump
#dump_modify 1 first no sort id
dump 2 all cfg 50000 ./pgnpmf/37/equilibration/trajectory/dumpequ.tens_*.cfg mass type xs ys zs fx fy fz
dump_modify 2 element N20 N100

# thermo_style
thermo_style custom step temp press pe density ke etotal lx ly lz xlo xhi ylo yhi zlo zhi vol dt time cpu tpcpu spcpu cpuremain

# run info
timestep 0.25
thermo 5000

# fix

fix 1 all momentum 1000 linear 1 1 1 angular
variable T equal 300
fix 2 all nvt temp 300 370000 100.0

run 20000
Generated 0 of 1 mixed pair_coeff terms from geometric mixing rule
Unused restart file global fix info:
  fix style: npt, fix ID: 5
  update every 1 steps, delay 0 steps, check yes
Step          Temp          Press          PotEng        Density         KinEng         TotEng           Lx             Ly             Lz            Xlo            Xhi            Ylo            Yhi            Zlo            Zhi           Volume           Dt            Time           CPU           T/CPU          S/CPU         CPULeft
1060000   327.93911      1.0027084     -4057250.4      0.028025497    976.54667     -4056273.9      2778.4196      2778.4196      2778.4196      610.79018      3389.2098      610.79018      3389.2098      610.79018      3389.2098      2.1448332e+10  0.25           310000         0              0              0              0
Loop time of 0.406195 on 4 procs for 20000 steps with 1000 atoms

unfix 2

fix 3 all nvt temp 370000 370000 $(100.0*dt) #iso 1.0 1.0 $(1000.0*dt)
fix 3 all nvt temp 370000 370000 25

run 100000
Generated 0 of 1 mixed pair_coeff terms from geometric mixing rule
Step          Temp          Press          PotEng        Density         KinEng         TotEng           Lx             Ly             Lz            Xlo            Xhi            Ylo            Yhi            Zlo            Zhi           Volume           Dt            Time           CPU           T/CPU          S/CPU         CPULeft
1080000   373909.63      3.0237683     -4096254.7      0.028025497    1113439       -2982815.7      2778.4196      2778.4196      2778.4196      610.79018      3389.2098      610.79018      3389.2098      610.79018      3389.2098      2.1448332e+10  0.25           315000         0              0              0              0
Averages over the last 11 of 21 rows, steps 1130000 to 1180000:
Temp Press PotEng Density KinEng TotEng Lx Ly Lz Xlo Xhi Ylo Yhi Zlo Zhi Volume Dt
364224 2.11793 -3.79073e+06 0.0280255 1.0846e+06 -2.70614e+06 2778.42 2778.42 2778.42 610.79 3389.21 610.79 3389.21 610.79 3389.21 2.14483e+10 0.25
Loop time of 1.8938 on 4 procs for 100000 steps with 1000 atoms

unfix 3

fix 4 all nvt temp 370000 300 100.0

run 20000
Generated 0 of 1 mixed pair_coeff terms from geometric mixing rule
Step          Temp          Press          PotEng        Density         KinEng         TotEng           Lx             Ly             Lz            Xlo            Xhi            Ylo            Yhi            Zlo            Zhi           Volume           Dt            Time           CPU           T/CPU          S/CPU         CPULeft
1180000   365526.68      1.7463115     -3701830.2      0.028025497    1088476       -2613354.1      2778.4196      2778.4196      2778.4196      610.79018      3389.2098      610.79018      3389.2098      610.79018      3389.2098      2.1448332e+10  0.25           340000         0              0              0              0
Loop time of 0.3736 on 4 procs for 20000 steps with 1000 atoms

unfix 4

fix 5 all npt temp 300 300 $(100.0*dt) iso 1.0 1.0 $(1000.0*dt)
fix 5 all npt temp 300 300 25 iso 1.0 1.0 $(1000.0*dt)
fix 5 all npt temp 300 300 25 iso 1.0 1.0 250

run 60000
Generated 0 of 1 mixed pair_coeff terms from geometric mixing rule
Step          Temp          Press          PotEng        Density         KinEng         TotEng           Lx             Ly             Lz            Xlo            Xhi            Ylo            Yhi            Zlo            Zhi           Volume           Dt            Time           CPU           T/CPU          S/CPU         CPULeft
1200000   7969.5977     -1.7354801     -3588176.9      0.028025497    23732.101     -3564444.8      2778.4196      2778.4196      2778.4196      610.79018      3389.2098      610.79018      3389.2098      610.79018      3389.2098      2.1448332e+10  0.25           345000         0              0              0              0
Averages over the last 7 of 13 rows, steps 1230000 to 1260000:
Temp Press PotEng Density KinEng TotEng Lx Ly Lz Xlo Xhi Ylo Yhi Zlo Zhi Volume Dt
330.929 0.995544 -4.24446e+06 0.0324756 985.45 -4.24348e+06 2645.35 2645.35 2645.35 677.325 3322.67 677.325 3322.67 677.325 3322.67 1.85131e+10 0.25
Loop time of 1.75232 on 4 procs for 60000 steps with 1000 atoms

# run_style
run_style verlet

# write restart
write_restart ./pgnpmf/37/equpmf6.res
System init for write_restart ...
Generated 0 of 1 mixed pair_coeff terms from geometric mixing rule
