LAMMPS (23 Jun 2022 - Update 1)
# Read restart
read_restart ./pgnpmf/37/equpmf56.res
Reading restart file ...
  restart file = 23 Jun 2022, LAMMPS = 23 Jun 2022
  restoring atom style atomic from restart
  orthogonal box = (1591.5948 1591.5948 1591.5948) to (2408.4052 2408.4052 2408.4052)
  restoring pair style table from restart
  1000 atoms
  read_restart CPU = 0.005 seconds

# Settings

pair_style table spline 9941

pair_coeff 1 1 ./pgnpmf/N20.txt DE_GNP 75.6
pair_coeff 2 2 ./pgnpmf/N100.txt DE_GNP 115.92
pair_coeff 1 2 ./pgnpmf/mixed_potential.txt DE_GNP 95.66

#Neigh_list Calc Frequency

neigh_modify delay 0 every 1 check yes

# Saving Frequency (50 frames)

variable ts_save equal 5000

variable nts equal 5000/0.25
variable medium equal 20000*3
variable long equal 20000*5

# Dump
#dump_modify 1 first no sort id
dump 2 all cfg 50000 ./pgnpmf/37/equilibration/trajectory/dumpequ.tens_*.cfg mass type xs ys zs fx fy fz
dump_modify 2 element N20 N100

# thermo_style
thermo_style custom step temp press pe density ke etotal lx ly lz xlo xhi ylo yhi zlo zhi vol dt time cpu tpcpu spcpu cpuremain

# run info
timestep 0.25
thermo 5000

# fix

fix 1 all momentum 1000 linear 1 1 1 angular
variable T equal 300
fix 2 all nvt temp 300 370000 100.0

run 20000
Generated 0 of 1 mixed pair_coeff terms from geometric mixing rule
Unused restart file global fix info:
  fix style: npt, fix ID: 5
  update every 1 steps, delay 0 steps, check yes
Step          Temp          Press          PotEng        Density         KinEng         TotEng           Lx             Ly             Lz            Xlo            Xhi            Ylo            Yhi            Zlo            Zhi           Volume           Dt            Time           CPU           T/CPU          S/CPU         CPULeft
11260000   341.4506       0.83493687    -35166228       1.1030189      1016.7816     -35165211       816.81047      816.81047      816.81047      1591.5948      2408.4052      1591.5948      2408.4052      1591.5948      2408.4052      5.4495908e+08  0.25           2860000        0              0              0              0
Loop time of 1.11213 on 4 procs for 20000 steps with 1000 atoms

unfix 2

fix 3 all nvt temp 370000 370000 $(100.0*dt) #iso 1.0 1.0 $(1000.0*dt)
fix 3 all nvt temp 370000 370000 25

run 100000
Generated 0 of 1 mixed pair_coeff terms from geometric mixing rule
Step          Temp          Press          PotEng        Density         KinEng         TotEng           Lx             Ly             Lz            Xlo            Xhi            Ylo            Yhi            Zlo            Zhi           Volume           Dt            Time           CPU           T/CPU          S/CPU         CPULeft
11280000   365084.59     -55.705849     -35190881       1.1030189      1087159.6     -34103722       816.81047      816.81047      816.81047      1591.5948      2408.4052      1591.5948      2408.4052      1591.5948      2408.4052      5.4495908e+08  0.25           2865000        0              0              0              0
Averages over the last 11 of 21 rows, steps 11330000 to 11380000:
Temp Press PotEng Density KinEng TotEng Lx Ly Lz Xlo Xhi Ylo Yhi Zlo Zhi Volume Dt
367609 109.527 -3.4968e+07 1.10302 1.09468e+06 -3.38733e+07 816.81 816.81 816.81 1591.59 2408.41 1591.59 2408.41 1591.59 2408.41 5.44959e+08 0.25
Loop time of 5.4712 on 4 procs for 100000 steps with 1000 atoms

unfix 3

fix 4 all nvt temp 370000 300 100.0

run 20000
Generated 0 of 1 mixed pair_coeff terms from geometric mixing rule
Step          Temp          Press          PotEng        Density         KinEng         TotEng           Lx             Ly             Lz            Xlo            Xhi            Ylo            Yhi            Zlo            Zhi           Volume           Dt            Time           CPU           T/CPU          S/CPU         CPULeft
11380000   375989.96      46.149266     -34722711       1.1030189      1119633.9     -33603077       816.81047      816.81047      816.81047      1591.5948      2408.4052      1591.5948      2408.4052      1591.5948      2408.4052      5.4495908e+08  0.25           2890000        0              0              0              0
Loop time of 1.07305 on 4 procs for 20000 steps with 1000 atoms

unfix 4

fix 5 all npt temp 300 300 $(100.0*dt) iso 1.0 1.0 $(1000.0*dt)
fix 5 all npt temp 300 300 25 iso 1.0 1.0 $(1000.0*dt)
fix 5 all npt temp 300 300 25 iso 1.0 1.0 250

run 60000
Generated 0 of 1 mixed pair_coeff terms from geometric mixing rule
Step          Temp          Press          PotEng        Density         KinEng         TotEng           Lx             Ly             Lz            Xlo            Xhi            Ylo            Yhi            Zlo            Zhi           Volume           Dt            Time           CPU           T/CPU          S/CPU         CPULeft
11400000   9216.7256     -486.49483     -34982895       1.1030189      27445.835     -34955450       816.81047      816.81047      816.81047      1591.5948      2408.4052      1591.5948      2408.4052      1591.5948      2408.4052      5.4495908e+08  0.25           2895000        0              0              0              0
Averages over the last 7 of 13 rows, steps 11430000 to 11460000:
Temp Press PotEng Density KinEng TotEng Lx Ly Lz Xlo Xhi Ylo Yhi Zlo Zhi Volume Dt
342.138 1.12705 -3.55313e+07 1.14009 1018.83 -3.55303e+07 807.861 807.861 807.861 1596.07 2403.93 1596.07 2403.93 1596.07 2403.93 5.27243e+08 0.25
Loop time of 3.87795 on 4 procs for 60000 steps with 1000 atoms

# run_style
run_style verlet

# write restart
write_restart ./pgnpmf/37/equpmf57.res
System init for write_restart ...
Generated 0 of 1 mixed pair_coeff terms from geometric mixing rule
