LAMMPS (23 Jun 2022 - Update 1)
# Read restart
read_restart ./pgnpmf/37/equpmf53.res
Reading restart file ...
  restart file = 23 Jun 2022, LAMMPS = 23 Jun 2022
  restoring atom style atomic from restart
  orthogonal box = (1574.3014 1574.3014 1574.3014) to (2425.6986 2425.6986 2425.6986)
  restoring pair style table from restart
  1000 atoms
  read_restart CPU = 0.004 seconds

# Settings

pair_style table spline 9941

pair_coeff 1 1 ./pgnpmf/N20.txt DE_GNP 75.6
pair_coeff 2 2 ./pgnpmf/N100.txt DE_GNP 115.92
pair_coeff 1 2 ./pgnpmf/mixed_potential.txt DE_GNP 95.66

#Neigh_list Calc Frequency

neigh_modify delay 0 every 1 check yes

# Saving Frequency (50 frames)

variable ts_save equal 5000

variable nts equal 5000/0.25
variable medium equal 20000*3
variable long equal 20000*5

# Dump
#dump_modify 1 first no sort id
dump 2 all cfg 50000 ./pgnpmf/37/equilibration/trajectory/dumpequ.tens_*.cfg mass type xs ys zs fx fy fz
dump_modify 2 element N20 N100

# thermo_style
thermo_style custom step temp press pe density ke etotal lx ly lz xlo xhi ylo yhi zlo zhi vol dt time cpu tpcpu spcpu cpuremain

# run info
timestep 0.25
thermo 5000

# fix

fix 1 all momentum 1000 linear 1 1 1 angular
variable T equal 300
fix 2 all nvt temp 300 370000 100.0

run 20000
Generated 0 of 1 mixed pair_coeff terms from geometric mixing rule
Unused restart file global fix info:
  fix style: npt, fix ID: 5
  update every 1 steps, delay 0 steps, check yes
Step          Temp          Press          PotEng        Density         KinEng         TotEng           Lx             Ly             Lz            Xlo            Xhi            Ylo            Yhi            Zlo            Zhi           Volume           Dt            Time           CPU           T/CPU          S/CPU         CPULeft
10660000   340.11315     -3.2713889     -33871211       0.97398015     1012.7989     -33870198       851.39725      851.39725      851.39725      1574.3014      2425.6986      1574.3014      2425.6986      1574.3014      2425.6986      6.1715852e+08  0.25           2710000        0              0              0              0
Loop time of 1.05312 on 4 procs for 20000 steps with 1000 atoms

unfix 2

fix 3 all nvt temp 370000 370000 $(100.0*dt) #iso 1.0 1.0 $(1000.0*dt)
fix 3 all nvt temp 370000 370000 25

run 100000
Generated 0 of 1 mixed pair_coeff terms from geometric mixing rule
Step          Temp          Press          PotEng        Density         KinEng         TotEng           Lx             Ly             Lz            Xlo            Xhi            Ylo            Yhi            Zlo            Zhi           Volume           Dt            Time           CPU           T/CPU          S/CPU         CPULeft
10680000   365495.36     -52.547715     -34025641       0.97398015     1088382.8     -32937258       851.39725      851.39725      851.39725      1574.3014      2425.6986      1574.3014      2425.6986      1574.3014      2425.6986      6.1715852e+08  0.25           2715000        0              0              0              0
Averages over the last 11 of 21 rows, steps 10730000 to 10780000:
Temp Press PotEng Density KinEng TotEng Lx Ly Lz Xlo Xhi Ylo Yhi Zlo Zhi Volume Dt
369573 32.6749 -3.37833e+07 0.97398 1.10053e+06 -3.26828e+07 851.397 851.397 851.397 1574.3 2425.7 1574.3 2425.7 1574.3 2425.7 6.17159e+08 0.25
Loop time of 5.37671 on 4 procs for 100000 steps with 1000 atoms

unfix 3

fix 4 all nvt temp 370000 300 100.0

run 20000
Generated 0 of 1 mixed pair_coeff terms from geometric mixing rule
Step          Temp          Press          PotEng        Density         KinEng         TotEng           Lx             Ly             Lz            Xlo            Xhi            Ylo            Yhi            Zlo            Zhi           Volume           Dt            Time           CPU           T/CPU          S/CPU         CPULeft
10780000   359153.48     -40.728469     -33453088       0.97398015     1069497.7     -32383591       851.39725      851.39725      851.39725      1574.3014      2425.6986      1574.3014      2425.6986      1574.3014      2425.6986      6.1715852e+08  0.25           2740000        0              0              0              0
Loop time of 1.09182 on 4 procs for 20000 steps with 1000 atoms

unfix 4

fix 5 all npt temp 300 300 $(100.0*dt) iso 1.0 1.0 $(1000.0*dt)
fix 5 all npt temp 300 300 25 iso 1.0 1.0 $(1000.0*dt)
fix 5 all npt temp 300 300 25 iso 1.0 1.0 250

run 60000
Generated 0 of 1 mixed pair_coeff terms from geometric mixing rule
Step          Temp          Press          PotEng        Density         KinEng         TotEng           Lx             Ly             Lz            Xlo            Xhi            Ylo            Yhi            Zlo            Zhi           Volume           Dt            Time           CPU           T/CPU          S/CPU         CPULeft
10800000   9143.8404     -527.13049     -33670222       0.97398015     27228.795     -33642993       851.39725      851.39725      851.39725      1574.3014      2425.6986      1574.3014      2425.6986      1574.3014      2425.6986      6.1715852e+08  0.25           2745000        0              0              0              0
Averages over the last 7 of 13 rows, steps 10830000 to 10860000:
Temp Press PotEng Density KinEng TotEng Lx Ly Lz Xlo Xhi Ylo Yhi Zlo Zhi Volume Dt
343.22 0.501793 -3.44185e+07 1.01488 1022.05 -3.44174e+07 839.804 839.804 839.804 1580.1 2419.9 1580.1 2419.9 1580.1 2419.9 5.92291e+08 0.25
Loop time of 3.90826 on 4 procs for 60000 steps with 1000 atoms

# run_style
run_style verlet

# write restart
write_restart ./pgnpmf/37/equpmf54.res
System init for write_restart ...
Generated 0 of 1 mixed pair_coeff terms from geometric mixing rule
