LAMMPS (23 Jun 2022 - Update 1)
# Read restart
read_restart ./pgnpmf/37/equpmf47.res
Reading restart file ...
  restart file = 23 Jun 2022, LAMMPS = 23 Jun 2022
  restoring atom style atomic from restart
  orthogonal box = (1536.8683 1536.8683 1536.8683) to (2463.1317 2463.1317 2463.1317)
  restoring pair style table from restart
  1000 atoms
  read_restart CPU = 0.004 seconds

# Settings

pair_style table spline 9941

pair_coeff 1 1 ./pgnpmf/N20.txt DE_GNP 75.6
pair_coeff 2 2 ./pgnpmf/N100.txt DE_GNP 115.92
pair_coeff 1 2 ./pgnpmf/mixed_potential.txt DE_GNP 95.66

#Neigh_list Calc Frequency

neigh_modify delay 0 every 1 check yes

# Saving Frequency (50 frames)

variable ts_save equal 5000

variable nts equal 5000/0.25
variable medium equal 20000*3
variable long equal 20000*5

# Dump
#dump_modify 1 first no sort id
dump 2 all cfg 50000 ./pgnpmf/37/equilibration/trajectory/dumpequ.tens_*.cfg mass type xs ys zs fx fy fz
dump_modify 2 element N20 N100

# thermo_style
thermo_style custom step temp press pe density ke etotal lx ly lz xlo xhi ylo yhi zlo zhi vol dt time cpu tpcpu spcpu cpuremain

# run info
timestep 0.25
thermo 5000

# fix

fix 1 all momentum 1000 linear 1 1 1 angular
variable T equal 300
fix 2 all nvt temp 300 370000 100.0

run 20000
Generated 0 of 1 mixed pair_coeff terms from geometric mixing rule
Unused restart file global fix info:
  fix style: npt, fix ID: 5
  update every 1 steps, delay 0 steps, check yes
Step          Temp          Press          PotEng        Density         KinEng         TotEng           Lx             Ly             Lz            Xlo            Xhi            Ylo            Yhi            Zlo            Zhi           Volume           Dt            Time           CPU           T/CPU          S/CPU         CPULeft
9460000   342.66298      0.95268694    -31528587       0.75638567     1020.3918     -31527567       926.26342      926.26342      926.26342      1536.8683      2463.1317      1536.8683      2463.1317      1536.8683      2463.1317      7.947006e+08   0.25           2410000        0              0              0              0
Loop time of 0.954167 on 4 procs for 20000 steps with 1000 atoms

unfix 2

fix 3 all nvt temp 370000 370000 $(100.0*dt) #iso 1.0 1.0 $(1000.0*dt)
fix 3 all nvt temp 370000 370000 25

run 100000
Generated 0 of 1 mixed pair_coeff terms from geometric mixing rule
Step          Temp          Press          PotEng        Density         KinEng         TotEng           Lx             Ly             Lz            Xlo            Xhi            Ylo            Yhi            Zlo            Zhi           Volume           Dt            Time           CPU           T/CPU          S/CPU         CPULeft
9480000   365673.51     -32.518075     -31624723       0.75638567     1088913.3     -30535810       926.26342      926.26342      926.26342      1536.8683      2463.1317      1536.8683      2463.1317      1536.8683      2463.1317      7.947006e+08   0.25           2415000        0              0              0              0
Averages over the last 11 of 21 rows, steps 9530000 to 9580000:
Temp Press PotEng Density KinEng TotEng Lx Ly Lz Xlo Xhi Ylo Yhi Zlo Zhi Volume Dt
372792 20.1239 -3.12168e+07 0.756386 1.11011e+06 -3.01067e+07 926.263 926.263 926.263 1536.87 2463.13 1536.87 2463.13 1536.87 2463.13 7.94701e+08 0.25
Loop time of 4.79061 on 4 procs for 100000 steps with 1000 atoms

unfix 3

fix 4 all nvt temp 370000 300 100.0

run 20000
Generated 0 of 1 mixed pair_coeff terms from geometric mixing rule
Step          Temp          Press          PotEng        Density         KinEng         TotEng           Lx             Ly             Lz            Xlo            Xhi            Ylo            Yhi            Zlo            Zhi           Volume           Dt            Time           CPU           T/CPU          S/CPU         CPULeft
9580000   380911.88     -7.5225465     -30930522       0.75638567     1134290.5     -29796232       926.26342      926.26342      926.26342      1536.8683      2463.1317      1536.8683      2463.1317      1536.8683      2463.1317      7.947006e+08   0.25           2440000        0              0              0              0
Loop time of 0.954196 on 4 procs for 20000 steps with 1000 atoms

unfix 4

fix 5 all npt temp 300 300 $(100.0*dt) iso 1.0 1.0 $(1000.0*dt)
fix 5 all npt temp 300 300 25 iso 1.0 1.0 $(1000.0*dt)
fix 5 all npt temp 300 300 25 iso 1.0 1.0 250

run 60000
Generated 0 of 1 mixed pair_coeff terms from geometric mixing rule
Step          Temp          Press          PotEng        Density         KinEng         TotEng           Lx             Ly             Lz            Xlo            Xhi            Ylo            Yhi            Zlo            Zhi           Volume           Dt            Time           CPU           T/CPU          S/CPU         CPULeft
9600000   9064.7098     -357.07024     -31093638       0.75638567     26993.158     -31066645       926.26342      926.26342      926.26342      1536.8683      2463.1317      1536.8683      2463.1317      1536.8683      2463.1317      7.947006e+08   0.25           2445000        0              0              0              0
Averages over the last 7 of 13 rows, steps 9630000 to 9660000:
Temp Press PotEng Density KinEng TotEng Lx Ly Lz Xlo Xhi Ylo Yhi Zlo Zhi Volume Dt
343.807 0.53404 -3.16117e+07 0.788211 1023.8 -3.16107e+07 913.626 913.626 913.626 1543.19 2456.81 1543.19 2456.81 1543.19 2456.81 7.62618e+08 0.25
Loop time of 3.49012 on 4 procs for 60000 steps with 1000 atoms

# run_style
run_style verlet

# write restart
write_restart ./pgnpmf/37/equpmf48.res
System init for write_restart ...
Generated 0 of 1 mixed pair_coeff terms from geometric mixing rule
