LAMMPS (23 Jun 2022 - Update 1)
# Read restart
read_restart ./pgnpmf/100900/equpmf73.res
Reading restart file ...
  restart file = 23 Jun 2022, LAMMPS = 23 Jun 2022
  restoring atom style atomic from restart
  orthogonal box = (1963.8611 1963.8611 1963.8611) to (3036.1389 3036.1389 3036.1389)
  restoring pair style table from restart
  900 atoms
  read_restart CPU = 0.005 seconds

# Settings

pair_style table spline 9941

pair_coeff 1 1 ./pgnpmf/N20.txt DE_GNP 75.6
pair_coeff 2 2 ./pgnpmf/N100.txt DE_GNP 115.92
pair_coeff 1 2 ./pgnpmf/mixed_potential.txt DE_GNP 95.66

#Neigh_list Calc Frequency

neigh_modify delay 0 every 1 check yes

# Saving Frequency (50 frames)

variable ts_save equal 5000

# Dump
#dump_modify 1 first no sort id
#dump 2 all cfg 50000 ./equilibration/trajectory/ovito/dumpgen.tens_*.cfg mass type xs ys zs fx fy fz

# thermo_style
thermo_style custom step temp press pe density ke etotal lx ly lz xlo xhi ylo yhi zlo zhi vol dt time cpu tpcpu spcpu cpuremain

# run info
timestep 0.1
thermo 200

# fix

fix 1 all momentum 1000 linear 1 1 1 angular
variable T equal 300
fix 2 all nvt temp 300 370000 100.0

run 100000
Generated 0 of 1 mixed pair_coeff terms from geometric mixing rule
Unused restart file global fix info:
  fix style: npt, fix ID: 5
  update every 1 steps, delay 0 steps, check yes
Step          Temp          Press          PotEng        Density         KinEng         TotEng           Lx             Ly             Lz            Xlo            Xhi            Ylo            Yhi            Zlo            Zhi           Volume           Dt            Time           CPU           T/CPU          S/CPU         CPULeft
51105000   307.885        1.3145622     -39602772       0.51160464     825.05428     -39601947       1072.2779      1072.2779      1072.2779      1963.8611      3036.1389      1963.8611      3036.1389      1963.8611      3036.1389      1.2328835e+09  0.1            19115000       0              0              0              0
Averages over the last 251 of 501 rows, steps 51155000 to 51205000:
Temp Press PotEng Density KinEng TotEng Lx Ly Lz Xlo Xhi Ylo Yhi Zlo Zhi Volume Dt
277174 -22.9411 -3.93511e+07 0.511605 742756 -3.86083e+07 1072.28 1072.28 1072.28 1963.86 3036.14 1963.86 3036.14 1963.86 3036.14 1.23288e+09 0.1
Loop time of 9.71306 on 1 procs for 100000 steps with 900 atoms

unfix 2

fix 3 all nvt temp 370000 370000 $(100.0*dt) #iso 1.0 1.0 $(1000.0*dt)
fix 3 all nvt temp 370000 370000 10

run 200000
Generated 0 of 1 mixed pair_coeff terms from geometric mixing rule
Step          Temp          Press          PotEng        Density         KinEng         TotEng           Lx             Ly             Lz            Xlo            Xhi            Ylo            Yhi            Zlo            Zhi           Volume           Dt            Time           CPU           T/CPU          S/CPU         CPULeft
51205000   367412.03      38.806372     -39400935       0.51160464     984571.75     -38416363       1072.2779      1072.2779      1072.2779      1963.8611      3036.1389      1963.8611      3036.1389      1963.8611      3036.1389      1.2328835e+09  0.1            19125000       0              0              0              0
Averages over the last 501 of 1001 rows, steps 51305000 to 51405000:
Temp Press PotEng Density KinEng TotEng Lx Ly Lz Xlo Xhi Ylo Yhi Zlo Zhi Volume Dt
369956 92.4266 -3.9226e+07 0.511605 991388 -3.82347e+07 1072.28 1072.28 1072.28 1963.86 3036.14 1963.86 3036.14 1963.86 3036.14 1.23288e+09 0.1
Loop time of 19.3739 on 1 procs for 200000 steps with 900 atoms

unfix 3

fix 4 all nvt temp 370000 300 100.0

run 100000
Generated 0 of 1 mixed pair_coeff terms from geometric mixing rule
Step          Temp          Press          PotEng        Density         KinEng         TotEng           Lx             Ly             Lz            Xlo            Xhi            Ylo            Yhi            Zlo            Zhi           Volume           Dt            Time           CPU           T/CPU          S/CPU         CPULeft
51405000   362077.76      50.105161     -38935151       0.51160464     970277.23     -37964873       1072.2779      1072.2779      1072.2779      1963.8611      3036.1389      1963.8611      3036.1389      1963.8611      3036.1389      1.2328835e+09  0.1            19145000       0              0              0              0
Averages over the last 251 of 501 rows, steps 51455000 to 51505000:
Temp Press PotEng Density KinEng TotEng Lx Ly Lz Xlo Xhi Ylo Yhi Zlo Zhi Volume Dt
95284.6 -133.909 -3.88384e+07 0.511605 255339 -3.85831e+07 1072.28 1072.28 1072.28 1963.86 3036.14 1963.86 3036.14 1963.86 3036.14 1.23288e+09 0.1
Loop time of 9.56654 on 1 procs for 100000 steps with 900 atoms

unfix 4

fix 5 all npt temp 300 300 $(100.0*dt) iso 1.0 1.0 $(1000.0*dt)
fix 5 all npt temp 300 300 10 iso 1.0 1.0 $(1000.0*dt)
fix 5 all npt temp 300 300 10 iso 1.0 1.0 100

run 300000
Generated 0 of 1 mixed pair_coeff terms from geometric mixing rule
Step          Temp          Press          PotEng        Density         KinEng         TotEng           Lx             Ly             Lz            Xlo            Xhi            Ylo            Yhi            Zlo            Zhi           Volume           Dt            Time           CPU           T/CPU          S/CPU         CPULeft
51505000   5004.5883     -197.42762     -38942892       0.51160464     13411.037     -38929481       1072.2779      1072.2779      1072.2779      1963.8611      3036.1389      1963.8611      3036.1389      1963.8611      3036.1389      1.2328835e+09  0.1            19155000       0              0              0              0
Averages over the last 751 of 1501 rows, steps 51655000 to 51805000:
Temp Press PotEng Density KinEng TotEng Lx Ly Lz Xlo Xhi Ylo Yhi Zlo Zhi Volume Dt
309.663 1.06298 -3.95319e+07 0.525199 829.818 -3.9531e+07 1062.95 1062.95 1062.95 1968.53 3031.47 1968.53 3031.47 1968.53 3031.47 1.20097e+09 0.1
Loop time of 34.7923 on 1 procs for 300000 steps with 900 atoms

# run_style
run_style verlet

# write restart
write_restart ./pgnpmf/100900/equpmf74.res
System init for write_restart ...
Generated 0 of 1 mixed pair_coeff terms from geometric mixing rule
