LAMMPS (23 Jun 2022 - Update 1)
# Read restart
read_restart ./pgnpmf/100900/equpmf104.res
Reading restart file ...
  restart file = 23 Jun 2022, LAMMPS = 23 Jun 2022
  restoring atom style atomic from restart
  orthogonal box = (2070.6559 2070.6559 2070.6559) to (2929.3441 2929.3441 2929.3441)
  restoring pair style table from restart
  900 atoms
  read_restart CPU = 0.027 seconds

# Settings

pair_style table spline 9941

pair_coeff 1 1 ./pgnpmf/N20.txt DE_GNP 75.6
pair_coeff 2 2 ./pgnpmf/N100.txt DE_GNP 115.92
pair_coeff 1 2 ./pgnpmf/mixed_potential.txt DE_GNP 95.66

#Neigh_list Calc Frequency

neigh_modify delay 0 every 1 check yes

# Saving Frequency (50 frames)

variable ts_save equal 5000

# Dump
#dump_modify 1 first no sort id
#dump 2 all cfg 50000 ./equilibration/trajectory/ovito/dumpgen.tens_*.cfg mass type xs ys zs fx fy fz

# thermo_style
thermo_style custom step temp press pe density ke etotal lx ly lz xlo xhi ylo yhi zlo zhi vol dt time cpu tpcpu spcpu cpuremain

# run info
timestep 0.1
thermo 200

# fix

fix 1 all momentum 1000 linear 1 1 1 angular
variable T equal 300
fix 2 all nvt temp 300 370000 100.0

run 100000
Generated 0 of 1 mixed pair_coeff terms from geometric mixing rule
Unused restart file global fix info:
  fix style: npt, fix ID: 5
  update every 1 steps, delay 0 steps, check yes
Step          Temp          Press          PotEng        Density         KinEng         TotEng           Lx             Ly             Lz            Xlo            Xhi            Ylo            Yhi            Zlo            Zhi           Volume           Dt            Time           CPU           T/CPU          S/CPU         CPULeft
72805000   307.22064      1.7131131     -47811184       0.99620781     823.27397     -47810361       858.68825      858.68825      858.68825      2070.6559      2929.3441      2070.6559      2929.3441      2070.6559      2929.3441      6.3314992e+08  0.1            21285000       0              0              0              0
Averages over the last 251 of 501 rows, steps 72855000 to 72905000:
Temp Press PotEng Density KinEng TotEng Lx Ly Lz Xlo Xhi Ylo Yhi Zlo Zhi Volume Dt
277000 179.987 -4.78368e+07 0.996208 742290 -4.70945e+07 858.688 858.688 858.688 2070.66 2929.34 2070.66 2929.34 2070.66 2929.34 6.3315e+08 0.1
Loop time of 13.665 on 1 procs for 100000 steps with 900 atoms

unfix 2

fix 3 all nvt temp 370000 370000 $(100.0*dt) #iso 1.0 1.0 $(1000.0*dt)
fix 3 all nvt temp 370000 370000 10

run 200000
Generated 0 of 1 mixed pair_coeff terms from geometric mixing rule
Step          Temp          Press          PotEng        Density         KinEng         TotEng           Lx             Ly             Lz            Xlo            Xhi            Ylo            Yhi            Zlo            Zhi           Volume           Dt            Time           CPU           T/CPU          S/CPU         CPULeft
72905000   371300.8       317.09335     -47904896       0.99620781     994992.68     -46909903       858.68825      858.68825      858.68825      2070.6559      2929.3441      2070.6559      2929.3441      2070.6559      2929.3441      6.3314992e+08  0.1            21295000       0              0              0              0
Averages over the last 501 of 1001 rows, steps 73005000 to 73105000:
Temp Press PotEng Density KinEng TotEng Lx Ly Lz Xlo Xhi Ylo Yhi Zlo Zhi Volume Dt
370085 103.449 -4.73341e+07 0.996208 991735 -4.63424e+07 858.688 858.688 858.688 2070.66 2929.34 2070.66 2929.34 2070.66 2929.34 6.3315e+08 0.1
Loop time of 27.6584 on 1 procs for 200000 steps with 900 atoms

unfix 3

fix 4 all nvt temp 370000 300 100.0

run 100000
Generated 0 of 1 mixed pair_coeff terms from geometric mixing rule
Step          Temp          Press          PotEng        Density         KinEng         TotEng           Lx             Ly             Lz            Xlo            Xhi            Ylo            Yhi            Zlo            Zhi           Volume           Dt            Time           CPU           T/CPU          S/CPU         CPULeft
73105000   368353.72      90.396187     -46892807       0.99620781     987095.22     -45905712       858.68825      858.68825      858.68825      2070.6559      2929.3441      2070.6559      2929.3441      2070.6559      2929.3441      6.3314992e+08  0.1            21315000       0              0              0              0
Averages over the last 251 of 501 rows, steps 73155000 to 73205000:
Temp Press PotEng Density KinEng TotEng Lx Ly Lz Xlo Xhi Ylo Yhi Zlo Zhi Volume Dt
95878.6 -332.136 -4.71049e+07 0.996208 256930 -4.6848e+07 858.688 858.688 858.688 2070.66 2929.34 2070.66 2929.34 2070.66 2929.34 6.3315e+08 0.1
Loop time of 13.6966 on 1 procs for 100000 steps with 900 atoms

unfix 4

fix 5 all npt temp 300 300 $(100.0*dt) iso 1.0 1.0 $(1000.0*dt)
fix 5 all npt temp 300 300 10 iso 1.0 1.0 $(1000.0*dt)
fix 5 all npt temp 300 300 10 iso 1.0 1.0 100

run 300000
Generated 0 of 1 mixed pair_coeff terms from geometric mixing rule
Step          Temp          Press          PotEng        Density         KinEng         TotEng           Lx             Ly             Lz            Xlo            Xhi            Ylo            Yhi            Zlo            Zhi           Volume           Dt            Time           CPU           T/CPU          S/CPU         CPULeft
73205000   5015.3512     -483.35017     -47218386       0.99620781     13439.878     -47204946       858.68825      858.68825      858.68825      2070.6559      2929.3441      2070.6559      2929.3441      2070.6559      2929.3441      6.3314992e+08  0.1            21325000       0              0              0              0
Averages over the last 751 of 1501 rows, steps 73355000 to 73505000:
Temp Press PotEng Density KinEng TotEng Lx Ly Lz Xlo Xhi Ylo Yhi Zlo Zhi Volume Dt
309.589 1.0268 -4.80759e+07 1.0208 829.619 -4.80751e+07 851.736 851.736 851.736 2074.13 2925.87 2074.13 2925.87 2074.13 2925.87 6.17895e+08 0.1
Loop time of 48.7225 on 1 procs for 300000 steps with 900 atoms

# run_style
run_style verlet

# write restart
write_restart ./pgnpmf/100900/equpmf105.res
System init for write_restart ...
Generated 0 of 1 mixed pair_coeff terms from geometric mixing rule
