LAMMPS (23 Jun 2022 - Update 1)
# Read restart
read_restart ./pgnpmf/100900/equpmf94.res
Reading restart file ...
  restart file = 23 Jun 2022, LAMMPS = 23 Jun 2022
  restoring atom style atomic from restart
  orthogonal box = (2037.8075 2037.8075 2037.8075) to (2962.1925 2962.1925 2962.1925)
  restoring pair style table from restart
  900 atoms
  read_restart CPU = 0.006 seconds

# Settings

pair_style table spline 9941

pair_coeff 1 1 ./pgnpmf/N20.txt DE_GNP 75.6
pair_coeff 2 2 ./pgnpmf/N100.txt DE_GNP 115.92
pair_coeff 1 2 ./pgnpmf/mixed_potential.txt DE_GNP 95.66

#Neigh_list Calc Frequency

neigh_modify delay 0 every 1 check yes

# Saving Frequency (50 frames)

variable ts_save equal 5000

# Dump
#dump_modify 1 first no sort id
#dump 2 all cfg 50000 ./equilibration/trajectory/ovito/dumpgen.tens_*.cfg mass type xs ys zs fx fy fz

# thermo_style
thermo_style custom step temp press pe density ke etotal lx ly lz xlo xhi ylo yhi zlo zhi vol dt time cpu tpcpu spcpu cpuremain

# run info
timestep 0.1
thermo 200

# fix

fix 1 all momentum 1000 linear 1 1 1 angular
variable T equal 300
fix 2 all nvt temp 300 370000 100.0

run 100000
Generated 0 of 1 mixed pair_coeff terms from geometric mixing rule
Unused restart file global fix info:
  fix style: npt, fix ID: 5
  update every 1 steps, delay 0 steps, check yes
Step          Temp          Press          PotEng        Density         KinEng         TotEng           Lx             Ly             Lz            Xlo            Xhi            Ylo            Yhi            Zlo            Zhi           Volume           Dt            Time           CPU           T/CPU          S/CPU         CPULeft
65805000   307.6435       2.9038935     -45333410       0.79854214     824.40712     -45332585       924.385        924.385        924.385        2037.8075      2962.1925      2037.8075      2962.1925      2037.8075      2962.1925      7.8987554e+08  0.1            20585000       0              0              0              0
Averages over the last 251 of 501 rows, steps 65855000 to 65905000:
Temp Press PotEng Density KinEng TotEng Lx Ly Lz Xlo Xhi Ylo Yhi Zlo Zhi Volume Dt
277222 39.9376 -4.54427e+07 0.798542 742886 -4.46998e+07 924.385 924.385 924.385 2037.81 2962.19 2037.81 2962.19 2037.81 2962.19 7.89876e+08 0.1
Loop time of 11.2099 on 1 procs for 100000 steps with 900 atoms

unfix 2

fix 3 all nvt temp 370000 370000 $(100.0*dt) #iso 1.0 1.0 $(1000.0*dt)
fix 3 all nvt temp 370000 370000 10

run 200000
Generated 0 of 1 mixed pair_coeff terms from geometric mixing rule
Step          Temp          Press          PotEng        Density         KinEng         TotEng           Lx             Ly             Lz            Xlo            Xhi            Ylo            Yhi            Zlo            Zhi           Volume           Dt            Time           CPU           T/CPU          S/CPU         CPULeft
65905000   373178.06      109.23366     -45490518       0.79854214     1000023.2     -44490495       924.385        924.385        924.385        2037.8075      2962.1925      2037.8075      2962.1925      2037.8075      2962.1925      7.8987554e+08  0.1            20595000       0              0              0              0
Averages over the last 501 of 1001 rows, steps 66005000 to 66105000:
Temp Press PotEng Density KinEng TotEng Lx Ly Lz Xlo Xhi Ylo Yhi Zlo Zhi Volume Dt
370027 91.7139 -4.4811e+07 0.798542 991580 -4.38194e+07 924.385 924.385 924.385 2037.81 2962.19 2037.81 2962.19 2037.81 2962.19 7.89876e+08 0.1
Loop time of 22.5445 on 1 procs for 200000 steps with 900 atoms

unfix 3

fix 4 all nvt temp 370000 300 100.0

run 100000
Generated 0 of 1 mixed pair_coeff terms from geometric mixing rule
Step          Temp          Press          PotEng        Density         KinEng         TotEng           Lx             Ly             Lz            Xlo            Xhi            Ylo            Yhi            Zlo            Zhi           Volume           Dt            Time           CPU           T/CPU          S/CPU         CPULeft
66105000   364879.43      96.585976     -44627966       0.79854214     977785.01     -43650181       924.385        924.385        924.385        2037.8075      2962.1925      2037.8075      2962.1925      2037.8075      2962.1925      7.8987554e+08  0.1            20615000       0              0              0              0
Averages over the last 251 of 501 rows, steps 66155000 to 66205000:
Temp Press PotEng Density KinEng TotEng Lx Ly Lz Xlo Xhi Ylo Yhi Zlo Zhi Volume Dt
95404.8 -234.121 -4.45143e+07 0.798542 255661 -4.42586e+07 924.385 924.385 924.385 2037.81 2962.19 2037.81 2962.19 2037.81 2962.19 7.89876e+08 0.1
Loop time of 11.137 on 1 procs for 100000 steps with 900 atoms

unfix 4

fix 5 all npt temp 300 300 $(100.0*dt) iso 1.0 1.0 $(1000.0*dt)
fix 5 all npt temp 300 300 10 iso 1.0 1.0 $(1000.0*dt)
fix 5 all npt temp 300 300 10 iso 1.0 1.0 100

run 300000
Generated 0 of 1 mixed pair_coeff terms from geometric mixing rule
Step          Temp          Press          PotEng        Density         KinEng         TotEng           Lx             Ly             Lz            Xlo            Xhi            Ylo            Yhi            Zlo            Zhi           Volume           Dt            Time           CPU           T/CPU          S/CPU         CPULeft
66205000   4995.1124     -345.59933     -44602451       0.79854214     13385.644     -44589066       924.385        924.385        924.385        2037.8075      2962.1925      2037.8075      2962.1925      2037.8075      2962.1925      7.8987554e+08  0.1            20625000       0              0              0              0
Averages over the last 751 of 1501 rows, steps 66355000 to 66505000:
Temp Press PotEng Density KinEng TotEng Lx Ly Lz Xlo Xhi Ylo Yhi Zlo Zhi Volume Dt
309.134 0.92808 -4.53182e+07 0.817011 828.4 -4.53174e+07 917.367 917.367 917.367 2041.32 2958.68 2041.32 2958.68 2041.32 2958.68 7.72021e+08 0.1
Loop time of 39.9735 on 1 procs for 300000 steps with 900 atoms

# run_style
run_style verlet

# write restart
write_restart ./pgnpmf/100900/equpmf95.res
System init for write_restart ...
Generated 0 of 1 mixed pair_coeff terms from geometric mixing rule
