LAMMPS (23 Jun 2022 - Update 1)
# Read restart
read_restart ./pgnpmf/100900/equpmf87.res
Reading restart file ...
  restart file = 23 Jun 2022, LAMMPS = 23 Jun 2022
  restoring atom style atomic from restart
  orthogonal box = (2015.7 2015.7 2015.7) to (2984.3 2984.3 2984.3)
  restoring pair style table from restart
  900 atoms
  read_restart CPU = 0.004 seconds

# Settings

pair_style table spline 9941

pair_coeff 1 1 ./pgnpmf/N20.txt DE_GNP 75.6
pair_coeff 2 2 ./pgnpmf/N100.txt DE_GNP 115.92
pair_coeff 1 2 ./pgnpmf/mixed_potential.txt DE_GNP 95.66

#Neigh_list Calc Frequency

neigh_modify delay 0 every 1 check yes

# Saving Frequency (50 frames)

variable ts_save equal 5000

# Dump
#dump_modify 1 first no sort id
#dump 2 all cfg 50000 ./equilibration/trajectory/ovito/dumpgen.tens_*.cfg mass type xs ys zs fx fy fz

# thermo_style
thermo_style custom step temp press pe density ke etotal lx ly lz xlo xhi ylo yhi zlo zhi vol dt time cpu tpcpu spcpu cpuremain

# run info
timestep 0.1
thermo 200

# fix

fix 1 all momentum 1000 linear 1 1 1 angular
variable T equal 300
fix 2 all nvt temp 300 370000 100.0

run 100000
Generated 0 of 1 mixed pair_coeff terms from geometric mixing rule
Unused restart file global fix info:
  fix style: npt, fix ID: 5
  update every 1 steps, delay 0 steps, check yes
Step          Temp          Press          PotEng        Density         KinEng         TotEng           Lx             Ly             Lz            Xlo            Xhi            Ylo            Yhi            Zlo            Zhi           Volume           Dt            Time           CPU           T/CPU          S/CPU         CPULeft
60905000   308.19226     -2.3389638     -43542135       0.69410185     825.87766     -43541309       968.59993      968.59993      968.59993      2015.7         2984.3         2015.7         2984.3         2015.7         2984.3         9.0872672e+08  0.1            20095000       0              0              0              0
Averages over the last 251 of 501 rows, steps 60955000 to 61005000:
Temp Press PotEng Density KinEng TotEng Lx Ly Lz Xlo Xhi Ylo Yhi Zlo Zhi Volume Dt
277062 -77.0116 -4.32761e+07 0.694102 742456 -4.25336e+07 968.6 968.6 968.6 2015.7 2984.3 2015.7 2984.3 2015.7 2984.3 9.08727e+08 0.1
Loop time of 11.0923 on 1 procs for 100000 steps with 900 atoms

unfix 2

fix 3 all nvt temp 370000 370000 $(100.0*dt) #iso 1.0 1.0 $(1000.0*dt)
fix 3 all nvt temp 370000 370000 10

run 200000
Generated 0 of 1 mixed pair_coeff terms from geometric mixing rule
Step          Temp          Press          PotEng        Density         KinEng         TotEng           Lx             Ly             Lz            Xlo            Xhi            Ylo            Yhi            Zlo            Zhi           Volume           Dt            Time           CPU           T/CPU          S/CPU         CPULeft
61005000   382328.89     -65.817767     -43216499       0.69410185     1024545.2     -42191954       968.59993      968.59993      968.59993      2015.7         2984.3         2015.7         2984.3         2015.7         2984.3         9.0872672e+08  0.1            20105000       0              0              0              0
Averages over the last 501 of 1001 rows, steps 61105000 to 61205000:
Temp Press PotEng Density KinEng TotEng Lx Ly Lz Xlo Xhi Ylo Yhi Zlo Zhi Volume Dt
369605 168.881 -4.33124e+07 0.694102 990448 -4.2322e+07 968.6 968.6 968.6 2015.7 2984.3 2015.7 2984.3 2015.7 2984.3 9.08727e+08 0.1
Loop time of 22.2552 on 1 procs for 200000 steps with 900 atoms

unfix 3

fix 4 all nvt temp 370000 300 100.0

run 100000
Generated 0 of 1 mixed pair_coeff terms from geometric mixing rule
Step          Temp          Press          PotEng        Density         KinEng         TotEng           Lx             Ly             Lz            Xlo            Xhi            Ylo            Yhi            Zlo            Zhi           Volume           Dt            Time           CPU           T/CPU          S/CPU         CPULeft
61205000   366229.4       204.01663     -43198090       0.69410185     981402.58     -42216688       968.59993      968.59993      968.59993      2015.7         2984.3         2015.7         2984.3         2015.7         2984.3         9.0872672e+08  0.1            20125000       0              0              0              0
Averages over the last 251 of 501 rows, steps 61255000 to 61305000:
Temp Press PotEng Density KinEng TotEng Lx Ly Lz Xlo Xhi Ylo Yhi Zlo Zhi Volume Dt
95779 -67.1197 -4.30452e+07 0.694102 256664 -4.27885e+07 968.6 968.6 968.6 2015.7 2984.3 2015.7 2984.3 2015.7 2984.3 9.08727e+08 0.1
Loop time of 11.1436 on 1 procs for 100000 steps with 900 atoms

unfix 4

fix 5 all npt temp 300 300 $(100.0*dt) iso 1.0 1.0 $(1000.0*dt)
fix 5 all npt temp 300 300 10 iso 1.0 1.0 $(1000.0*dt)
fix 5 all npt temp 300 300 10 iso 1.0 1.0 100

run 300000
Generated 0 of 1 mixed pair_coeff terms from geometric mixing rule
Step          Temp          Press          PotEng        Density         KinEng         TotEng           Lx             Ly             Lz            Xlo            Xhi            Ylo            Yhi            Zlo            Zhi           Volume           Dt            Time           CPU           T/CPU          S/CPU         CPULeft
61305000   4978.0911     -185.95998     -43083555       0.69410185     13340.031     -43070215       968.59993      968.59993      968.59993      2015.7         2984.3         2015.7         2984.3         2015.7         2984.3         9.0872672e+08  0.1            20135000       0              0              0              0
Averages over the last 751 of 1501 rows, steps 61455000 to 61605000:
Temp Press PotEng Density KinEng TotEng Lx Ly Lz Xlo Xhi Ylo Yhi Zlo Zhi Volume Dt
308.368 1.01273 -4.36073e+07 0.705371 826.348 -4.36065e+07 963.414 963.414 963.414 2018.29 2981.71 2018.29 2981.71 2018.29 2981.71 8.94209e+08 0.1
Loop time of 39.7873 on 1 procs for 300000 steps with 900 atoms

# run_style
run_style verlet

# write restart
write_restart ./pgnpmf/100900/equpmf88.res
System init for write_restart ...
Generated 0 of 1 mixed pair_coeff terms from geometric mixing rule
