LAMMPS (23 Jun 2022 - Update 1)
# Read restart
read_restart ./pgnpmf/100900/equpmf149.res
Reading restart file ...
  restart file = 23 Jun 2022, LAMMPS = 23 Jun 2022
  restoring atom style atomic from restart
  orthogonal box = (2126.9883 2126.9883 2126.9883) to (2873.0117 2873.0117 2873.0117)
  restoring pair style table from restart
  900 atoms
  read_restart CPU = 0.003 seconds

# Settings

pair_style table spline 9941

pair_coeff 1 1 ./pgnpmf/N20.txt DE_GNP 75.6
pair_coeff 2 2 ./pgnpmf/N100.txt DE_GNP 115.92
pair_coeff 1 2 ./pgnpmf/mixed_potential.txt DE_GNP 95.66

#Neigh_list Calc Frequency

neigh_modify delay 0 every 1 check yes

# Saving Frequency (50 frames)

variable ts_save equal 5000

# Dump
#dump_modify 1 first no sort id
#dump 2 all cfg 50000 ./equilibration/trajectory/ovito/dumpgen.tens_*.cfg mass type xs ys zs fx fy fz

# thermo_style
thermo_style custom step temp press pe density ke etotal lx ly lz xlo xhi ylo yhi zlo zhi vol dt time cpu tpcpu spcpu cpuremain

# run info
timestep 0.1
thermo 200

# fix

fix 1 all momentum 1000 linear 1 1 1 angular
variable T equal 300
fix 2 all nvt temp 300 370000 100.0

run 100000
Generated 0 of 1 mixed pair_coeff terms from geometric mixing rule
Unused restart file global fix info:
  fix style: npt, fix ID: 5
  update every 1 steps, delay 0 steps, check yes
Step          Temp          Press          PotEng        Density         KinEng         TotEng           Lx             Ly             Lz            Xlo            Xhi            Ylo            Yhi            Zlo            Zhi           Volume           Dt            Time           CPU           T/CPU          S/CPU         CPULeft
104305000   305.76431     -1.898078      -54101541       1.5191448      819.37138     -54100722       746.0234       746.0234       746.0234       2126.9883      2873.0117      2126.9883      2873.0117      2126.9883      2873.0117      4.152e+08      0.1            24435000       0              0              0              0
Averages over the last 251 of 501 rows, steps 104355000 to 104405000:
Temp Press PotEng Density KinEng TotEng Lx Ly Lz Xlo Xhi Ylo Yhi Zlo Zhi Volume Dt
276678 427.707 -5.41858e+07 1.51914 741426 -5.34444e+07 746.023 746.023 746.023 2126.99 2873.01 2126.99 2873.01 2126.99 2873.01 4.152e+08 0.1
Loop time of 17.1472 on 1 procs for 100000 steps with 900 atoms

unfix 2

fix 3 all nvt temp 370000 370000 $(100.0*dt) #iso 1.0 1.0 $(1000.0*dt)
fix 3 all nvt temp 370000 370000 10

run 200000
Generated 0 of 1 mixed pair_coeff terms from geometric mixing rule
Step          Temp          Press          PotEng        Density         KinEng         TotEng           Lx             Ly             Lz            Xlo            Xhi            Ylo            Yhi            Zlo            Zhi           Volume           Dt            Time           CPU           T/CPU          S/CPU         CPULeft
104405000   372591.56      725.15956     -54210929       1.5191448      998451.57     -53212478       746.0234       746.0234       746.0234       2126.9883      2873.0117      2126.9883      2873.0117      2126.9883      2873.0117      4.152e+08      0.1            24445000       0              0              0              0
Averages over the last 501 of 1001 rows, steps 104505000 to 104605000:
Temp Press PotEng Density KinEng TotEng Lx Ly Lz Xlo Xhi Ylo Yhi Zlo Zhi Volume Dt
369988 1238.41 -5.387e+07 1.51914 991474 -5.28785e+07 746.023 746.023 746.023 2126.99 2873.01 2126.99 2873.01 2126.99 2873.01 4.152e+08 0.1
Loop time of 34.8253 on 1 procs for 200000 steps with 900 atoms

unfix 3

fix 4 all nvt temp 370000 300 100.0

run 100000
Generated 0 of 1 mixed pair_coeff terms from geometric mixing rule
Step          Temp          Press          PotEng        Density         KinEng         TotEng           Lx             Ly             Lz            Xlo            Xhi            Ylo            Yhi            Zlo            Zhi           Volume           Dt            Time           CPU           T/CPU          S/CPU         CPULeft
104605000   368236.01      1238.2761     -53609489       1.5191448      986779.8      -52622710       746.0234       746.0234       746.0234       2126.9883      2873.0117      2126.9883      2873.0117      2126.9883      2873.0117      4.152e+08      0.1            24465000       0              0              0              0
Averages over the last 251 of 501 rows, steps 104655000 to 104705000:
Temp Press PotEng Density KinEng TotEng Lx Ly Lz Xlo Xhi Ylo Yhi Zlo Zhi Volume Dt
96679.8 530.107 -5.37236e+07 1.51914 259078 -5.34645e+07 746.023 746.023 746.023 2126.99 2873.01 2126.99 2873.01 2126.99 2873.01 4.152e+08 0.1
Loop time of 17.3292 on 1 procs for 100000 steps with 900 atoms

unfix 4

fix 5 all npt temp 300 300 $(100.0*dt) iso 1.0 1.0 $(1000.0*dt)
fix 5 all npt temp 300 300 10 iso 1.0 1.0 $(1000.0*dt)
fix 5 all npt temp 300 300 10 iso 1.0 1.0 100

run 300000
Generated 0 of 1 mixed pair_coeff terms from geometric mixing rule
Step          Temp          Press          PotEng        Density         KinEng         TotEng           Lx             Ly             Lz            Xlo            Xhi            Ylo            Yhi            Zlo            Zhi           Volume           Dt            Time           CPU           T/CPU          S/CPU         CPULeft
104705000   5146.5018      207.11028     -53866432       1.5191448      13791.329     -53852641       746.0234       746.0234       746.0234       2126.9883      2873.0117      2126.9883      2873.0117      2126.9883      2873.0117      4.152e+08      0.1            24475000       0              0              0              0
Averages over the last 751 of 1501 rows, steps 104855000 to 105005000:
Temp Press PotEng Density KinEng TotEng Lx Ly Lz Xlo Xhi Ylo Yhi Zlo Zhi Volume Dt
307.462 1.07204 -5.3914e+07 1.5188 823.92 -5.39131e+07 746.079 746.079 746.079 2126.96 2873.04 2126.96 2873.04 2126.96 2873.04 4.15293e+08 0.1
Loop time of 59.4656 on 1 procs for 300000 steps with 900 atoms

# run_style
run_style verlet

# write restart
write_restart ./pgnpmf/100900/equpmf150.res
System init for write_restart ...
Generated 0 of 1 mixed pair_coeff terms from geometric mixing rule
