LAMMPS (23 Jun 2022 - Update 1)
# Read restart
read_restart ./pgnpmf/100900/equpmf106.res
Reading restart file ...
  restart file = 23 Jun 2022, LAMMPS = 23 Jun 2022
  restoring atom style atomic from restart
  orthogonal box = (2076.5074 2076.5074 2076.5074) to (2923.4926 2923.4926 2923.4926)
  restoring pair style table from restart
  900 atoms
  read_restart CPU = 0.008 seconds

# Settings

pair_style table spline 9941

pair_coeff 1 1 ./pgnpmf/N20.txt DE_GNP 75.6
pair_coeff 2 2 ./pgnpmf/N100.txt DE_GNP 115.92
pair_coeff 1 2 ./pgnpmf/mixed_potential.txt DE_GNP 95.66

#Neigh_list Calc Frequency

neigh_modify delay 0 every 1 check yes

# Saving Frequency (50 frames)

variable ts_save equal 5000

# Dump
#dump_modify 1 first no sort id
#dump 2 all cfg 50000 ./equilibration/trajectory/ovito/dumpgen.tens_*.cfg mass type xs ys zs fx fy fz

# thermo_style
thermo_style custom step temp press pe density ke etotal lx ly lz xlo xhi ylo yhi zlo zhi vol dt time cpu tpcpu spcpu cpuremain

# run info
timestep 0.1
thermo 200

# fix

fix 1 all momentum 1000 linear 1 1 1 angular
variable T equal 300
fix 2 all nvt temp 300 370000 100.0

run 100000
Generated 0 of 1 mixed pair_coeff terms from geometric mixing rule
Unused restart file global fix info:
  fix style: npt, fix ID: 5
  update every 1 steps, delay 0 steps, check yes
Step          Temp          Press          PotEng        Density         KinEng         TotEng           Lx             Ly             Lz            Xlo            Xhi            Ylo            Yhi            Zlo            Zhi           Volume           Dt            Time           CPU           T/CPU          S/CPU         CPULeft
74205000   306.99346      1.0391648     -48424339       1.0380757      822.66518     -48423516       846.98522      846.98522      846.98522      2076.5074      2923.4926      2076.5074      2923.4926      2076.5074      2923.4926      6.0761362e+08  0.1            21425000       0              0              0              0
Averages over the last 251 of 501 rows, steps 74255000 to 74305000:
Temp Press PotEng Density KinEng TotEng Lx Ly Lz Xlo Xhi Ylo Yhi Zlo Zhi Volume Dt
277200 201.559 -4.84629e+07 1.03808 742826 -4.77201e+07 846.985 846.985 846.985 2076.51 2923.49 2076.51 2923.49 2076.51 2923.49 6.07614e+08 0.1
Loop time of 13.85 on 1 procs for 100000 steps with 900 atoms

unfix 2

fix 3 all nvt temp 370000 370000 $(100.0*dt) #iso 1.0 1.0 $(1000.0*dt)
fix 3 all nvt temp 370000 370000 10

run 200000
Generated 0 of 1 mixed pair_coeff terms from geometric mixing rule
Step          Temp          Press          PotEng        Density         KinEng         TotEng           Lx             Ly             Lz            Xlo            Xhi            Ylo            Yhi            Zlo            Zhi           Volume           Dt            Time           CPU           T/CPU          S/CPU         CPULeft
74305000   368120.77      311.45621     -48541504       1.0380757      986470.99     -47555033       846.98522      846.98522      846.98522      2076.5074      2923.4926      2076.5074      2923.4926      2076.5074      2923.4926      6.0761362e+08  0.1            21435000       0              0              0              0
Averages over the last 501 of 1001 rows, steps 74405000 to 74505000:
Temp Press PotEng Density KinEng TotEng Lx Ly Lz Xlo Xhi Ylo Yhi Zlo Zhi Volume Dt
370036 247.493 -4.79686e+07 1.03808 991604 -4.6977e+07 846.985 846.985 846.985 2076.51 2923.49 2076.51 2923.49 2076.51 2923.49 6.07614e+08 0.1
Loop time of 27.8911 on 1 procs for 200000 steps with 900 atoms

unfix 3

fix 4 all nvt temp 370000 300 100.0

run 100000
Generated 0 of 1 mixed pair_coeff terms from geometric mixing rule
Step          Temp          Press          PotEng        Density         KinEng         TotEng           Lx             Ly             Lz            Xlo            Xhi            Ylo            Yhi            Zlo            Zhi           Volume           Dt            Time           CPU           T/CPU          S/CPU         CPULeft
74505000   362233.05      227.59001     -47730372       1.0380757      970693.38     -46759679       846.98522      846.98522      846.98522      2076.5074      2923.4926      2076.5074      2923.4926      2076.5074      2923.4926      6.0761362e+08  0.1            21455000       0              0              0              0
Averages over the last 251 of 501 rows, steps 74555000 to 74605000:
Temp Press PotEng Density KinEng TotEng Lx Ly Lz Xlo Xhi Ylo Yhi Zlo Zhi Volume Dt
95226.9 -250.776 -4.74905e+07 1.03808 255184 -4.72353e+07 846.985 846.985 846.985 2076.51 2923.49 2076.51 2923.49 2076.51 2923.49 6.07614e+08 0.1
Loop time of 13.7719 on 1 procs for 100000 steps with 900 atoms

unfix 4

fix 5 all npt temp 300 300 $(100.0*dt) iso 1.0 1.0 $(1000.0*dt)
fix 5 all npt temp 300 300 10 iso 1.0 1.0 $(1000.0*dt)
fix 5 all npt temp 300 300 10 iso 1.0 1.0 100

run 300000
Generated 0 of 1 mixed pair_coeff terms from geometric mixing rule
Step          Temp          Press          PotEng        Density         KinEng         TotEng           Lx             Ly             Lz            Xlo            Xhi            Ylo            Yhi            Zlo            Zhi           Volume           Dt            Time           CPU           T/CPU          S/CPU         CPULeft
74605000   5005.7511     -433.87366     -47513058       1.0380757      13414.153     -47499643       846.98522      846.98522      846.98522      2076.5074      2923.4926      2076.5074      2923.4926      2076.5074      2923.4926      6.0761362e+08  0.1            21465000       0              0              0              0
Averages over the last 751 of 1501 rows, steps 74755000 to 74905000:
Temp Press PotEng Density KinEng TotEng Lx Ly Lz Xlo Xhi Ylo Yhi Zlo Zhi Volume Dt
308.925 0.993065 -4.827e+07 1.05984 827.841 -4.82692e+07 841.148 841.148 841.148 2079.43 2920.57 2079.43 2920.57 2079.43 2920.57 5.95137e+08 0.1
Loop time of 49.1145 on 1 procs for 300000 steps with 900 atoms

# run_style
run_style verlet

# write restart
write_restart ./pgnpmf/100900/equpmf107.res
System init for write_restart ...
Generated 0 of 1 mixed pair_coeff terms from geometric mixing rule
