LAMMPS (23 Jun 2022 - Update 1)
# Read restart
read_restart ./pgnpmf/100900/equpmf96.res
Reading restart file ...
  restart file = 23 Jun 2022, LAMMPS = 23 Jun 2022
  restoring atom style atomic from restart
  orthogonal box = (2045.657 2045.657 2045.657) to (2954.343 2954.343 2954.343)
  restoring pair style table from restart
  900 atoms
  read_restart CPU = 0.005 seconds

# Settings

pair_style table spline 9941

pair_coeff 1 1 ./pgnpmf/N20.txt DE_GNP 75.6
pair_coeff 2 2 ./pgnpmf/N100.txt DE_GNP 115.92
pair_coeff 1 2 ./pgnpmf/mixed_potential.txt DE_GNP 95.66

#Neigh_list Calc Frequency

neigh_modify delay 0 every 1 check yes

# Saving Frequency (50 frames)

variable ts_save equal 5000

# Dump
#dump_modify 1 first no sort id
#dump 2 all cfg 50000 ./equilibration/trajectory/ovito/dumpgen.tens_*.cfg mass type xs ys zs fx fy fz

# thermo_style
thermo_style custom step temp press pe density ke etotal lx ly lz xlo xhi ylo yhi zlo zhi vol dt time cpu tpcpu spcpu cpuremain

# run info
timestep 0.1
thermo 200

# fix

fix 1 all momentum 1000 linear 1 1 1 angular
variable T equal 300
fix 2 all nvt temp 300 370000 100.0

run 100000
Generated 0 of 1 mixed pair_coeff terms from geometric mixing rule
Unused restart file global fix info:
  fix style: npt, fix ID: 5
  update every 1 steps, delay 0 steps, check yes
Step          Temp          Press          PotEng        Density         KinEng         TotEng           Lx             Ly             Lz            Xlo            Xhi            Ylo            Yhi            Zlo            Zhi           Volume           Dt            Time           CPU           T/CPU          S/CPU         CPULeft
67205000   307.81493     -0.29294634    -45701965       0.84064938     824.86651     -45701140       908.68606      908.68606      908.68606      2045.657       2954.343       2045.657       2954.343       2045.657       2954.343       7.503115e+08   0.1            20725000       0              0              0              0
Averages over the last 251 of 501 rows, steps 67255000 to 67305000:
Temp Press PotEng Density KinEng TotEng Lx Ly Lz Xlo Xhi Ylo Yhi Zlo Zhi Volume Dt
277387 15.0008 -4.56623e+07 0.840649 743327 -4.4919e+07 908.686 908.686 908.686 2045.66 2954.34 2045.66 2954.34 2045.66 2954.34 7.50312e+08 0.1
Loop time of 11.5683 on 1 procs for 100000 steps with 900 atoms

unfix 2

fix 3 all nvt temp 370000 370000 $(100.0*dt) #iso 1.0 1.0 $(1000.0*dt)
fix 3 all nvt temp 370000 370000 10

run 200000
Generated 0 of 1 mixed pair_coeff terms from geometric mixing rule
Step          Temp          Press          PotEng        Density         KinEng         TotEng           Lx             Ly             Lz            Xlo            Xhi            Ylo            Yhi            Zlo            Zhi           Volume           Dt            Time           CPU           T/CPU          S/CPU         CPULeft
67305000   357303.06      115.34363     -45775831       0.84064938     957482.25     -44818349       908.68606      908.68606      908.68606      2045.657       2954.343       2045.657       2954.343       2045.657       2954.343       7.503115e+08   0.1            20735000       0              0              0              0
Averages over the last 501 of 1001 rows, steps 67405000 to 67505000:
Temp Press PotEng Density KinEng TotEng Lx Ly Lz Xlo Xhi Ylo Yhi Zlo Zhi Volume Dt
369927 127.249 -4.5292e+07 0.840649 991311 -4.43007e+07 908.686 908.686 908.686 2045.66 2954.34 2045.66 2954.34 2045.66 2954.34 7.50312e+08 0.1
Loop time of 23.354 on 1 procs for 200000 steps with 900 atoms

unfix 3

fix 4 all nvt temp 370000 300 100.0

run 100000
Generated 0 of 1 mixed pair_coeff terms from geometric mixing rule
Step          Temp          Press          PotEng        Density         KinEng         TotEng           Lx             Ly             Lz            Xlo            Xhi            Ylo            Yhi            Zlo            Zhi           Volume           Dt            Time           CPU           T/CPU          S/CPU         CPULeft
67505000   363546.86      129.88836     -45179154       0.84064938     974214.07     -44204940       908.68606      908.68606      908.68606      2045.657       2954.343       2045.657       2954.343       2045.657       2954.343       7.503115e+08   0.1            20755000       0              0              0              0
Averages over the last 251 of 501 rows, steps 67555000 to 67605000:
Temp Press PotEng Density KinEng TotEng Lx Ly Lz Xlo Xhi Ylo Yhi Zlo Zhi Volume Dt
95481.9 -184.974 -4.5085e+07 0.840649 255867 -4.48291e+07 908.686 908.686 908.686 2045.66 2954.34 2045.66 2954.34 2045.66 2954.34 7.50312e+08 0.1
Loop time of 11.5949 on 1 procs for 100000 steps with 900 atoms

unfix 4

fix 5 all npt temp 300 300 $(100.0*dt) iso 1.0 1.0 $(1000.0*dt)
fix 5 all npt temp 300 300 10 iso 1.0 1.0 $(1000.0*dt)
fix 5 all npt temp 300 300 10 iso 1.0 1.0 100

run 300000
Generated 0 of 1 mixed pair_coeff terms from geometric mixing rule
Step          Temp          Press          PotEng        Density         KinEng         TotEng           Lx             Ly             Lz            Xlo            Xhi            Ylo            Yhi            Zlo            Zhi           Volume           Dt            Time           CPU           T/CPU          S/CPU         CPULeft
67605000   5045.4324     -319.67984     -45133157       0.84064938     13520.488     -45119637       908.68606      908.68606      908.68606      2045.657       2954.343       2045.657       2954.343       2045.657       2954.343       7.503115e+08   0.1            20765000       0              0              0              0
Averages over the last 751 of 1501 rows, steps 67755000 to 67905000:
Temp Press PotEng Density KinEng TotEng Lx Ly Lz Xlo Xhi Ylo Yhi Zlo Zhi Volume Dt
309.198 1.00471 -4.58986e+07 0.857611 828.574 -4.58978e+07 902.656 902.656 902.656 2048.67 2951.33 2048.67 2951.33 2048.67 2951.33 7.35473e+08 0.1
Loop time of 41.3372 on 1 procs for 300000 steps with 900 atoms

# run_style
run_style verlet

# write restart
write_restart ./pgnpmf/100900/equpmf97.res
System init for write_restart ...
Generated 0 of 1 mixed pair_coeff terms from geometric mixing rule
