LAMMPS (23 Jun 2022 - Update 1)
# Read restart
read_restart ./pgnpmf/100900/equpmf145.res
Reading restart file ...
  restart file = 23 Jun 2022, LAMMPS = 23 Jun 2022
  restoring atom style atomic from restart
  orthogonal box = (2126.4136 2126.4136 2126.4136) to (2873.5864 2873.5864 2873.5864)
  restoring pair style table from restart
  900 atoms
  read_restart CPU = 0.003 seconds

# Settings

pair_style table spline 9941

pair_coeff 1 1 ./pgnpmf/N20.txt DE_GNP 75.6
pair_coeff 2 2 ./pgnpmf/N100.txt DE_GNP 115.92
pair_coeff 1 2 ./pgnpmf/mixed_potential.txt DE_GNP 95.66

#Neigh_list Calc Frequency

neigh_modify delay 0 every 1 check yes

# Saving Frequency (50 frames)

variable ts_save equal 5000

# Dump
#dump_modify 1 first no sort id
#dump 2 all cfg 50000 ./equilibration/trajectory/ovito/dumpgen.tens_*.cfg mass type xs ys zs fx fy fz

# thermo_style
thermo_style custom step temp press pe density ke etotal lx ly lz xlo xhi ylo yhi zlo zhi vol dt time cpu tpcpu spcpu cpuremain

# run info
timestep 0.1
thermo 200

# fix

fix 1 all momentum 1000 linear 1 1 1 angular
variable T equal 300
fix 2 all nvt temp 300 370000 100.0

run 100000
Generated 0 of 1 mixed pair_coeff terms from geometric mixing rule
Unused restart file global fix info:
  fix style: npt, fix ID: 5
  update every 1 steps, delay 0 steps, check yes
Step          Temp          Press          PotEng        Density         KinEng         TotEng           Lx             Ly             Lz            Xlo            Xhi            Ylo            Yhi            Zlo            Zhi           Volume           Dt            Time           CPU           T/CPU          S/CPU         CPULeft
101505000   305.33606      4.3437556     -54115028       1.5121451      818.22377     -54114210       747.17273      747.17273      747.17273      2126.4136      2873.5864      2126.4136      2873.5864      2126.4136      2873.5864      4.1712194e+08  0.1            24155000       0              0              0              0
Averages over the last 251 of 501 rows, steps 101555000 to 101605000:
Temp Press PotEng Density KinEng TotEng Lx Ly Lz Xlo Xhi Ylo Yhi Zlo Zhi Volume Dt
276352 521.792 -5.39382e+07 1.51215 740553 -5.31976e+07 747.173 747.173 747.173 2126.41 2873.59 2126.41 2873.59 2126.41 2873.59 4.17122e+08 0.1
Loop time of 17.0825 on 1 procs for 100000 steps with 900 atoms

unfix 2

fix 3 all nvt temp 370000 370000 $(100.0*dt) #iso 1.0 1.0 $(1000.0*dt)
fix 3 all nvt temp 370000 370000 10

run 200000
Generated 0 of 1 mixed pair_coeff terms from geometric mixing rule
Step          Temp          Press          PotEng        Density         KinEng         TotEng           Lx             Ly             Lz            Xlo            Xhi            Ylo            Yhi            Zlo            Zhi           Volume           Dt            Time           CPU           T/CPU          S/CPU         CPULeft
101605000   365041.37      830.52842     -53976549       1.5121451      978218.98     -52998330       747.17273      747.17273      747.17273      2126.4136      2873.5864      2126.4136      2873.5864      2126.4136      2873.5864      4.1712194e+08  0.1            24165000       0              0              0              0
Averages over the last 501 of 1001 rows, steps 101705000 to 101805000:
Temp Press PotEng Density KinEng TotEng Lx Ly Lz Xlo Xhi Ylo Yhi Zlo Zhi Volume Dt
370339 1093.95 -5.36001e+07 1.51215 992415 -5.26077e+07 747.173 747.173 747.173 2126.41 2873.59 2126.41 2873.59 2126.41 2873.59 4.17122e+08 0.1
Loop time of 34.5296 on 1 procs for 200000 steps with 900 atoms

unfix 3

fix 4 all nvt temp 370000 300 100.0

run 100000
Generated 0 of 1 mixed pair_coeff terms from geometric mixing rule
Step          Temp          Press          PotEng        Density         KinEng         TotEng           Lx             Ly             Lz            Xlo            Xhi            Ylo            Yhi            Zlo            Zhi           Volume           Dt            Time           CPU           T/CPU          S/CPU         CPULeft
101805000   377235.99      1101.6626     -53467734       1.5121451      1010897.5     -52456837       747.17273      747.17273      747.17273      2126.4136      2873.5864      2126.4136      2873.5864      2126.4136      2873.5864      4.1712194e+08  0.1            24185000       0              0              0              0
Averages over the last 251 of 501 rows, steps 101855000 to 101905000:
Temp Press PotEng Density KinEng TotEng Lx Ly Lz Xlo Xhi Ylo Yhi Zlo Zhi Volume Dt
96015.8 354.117 -5.34553e+07 1.51215 257298 -5.3198e+07 747.173 747.173 747.173 2126.41 2873.59 2126.41 2873.59 2126.41 2873.59 4.17122e+08 0.1
Loop time of 17.0907 on 1 procs for 100000 steps with 900 atoms

unfix 4

fix 5 all npt temp 300 300 $(100.0*dt) iso 1.0 1.0 $(1000.0*dt)
fix 5 all npt temp 300 300 10 iso 1.0 1.0 $(1000.0*dt)
fix 5 all npt temp 300 300 10 iso 1.0 1.0 100

run 300000
Generated 0 of 1 mixed pair_coeff terms from geometric mixing rule
Step          Temp          Press          PotEng        Density         KinEng         TotEng           Lx             Ly             Lz            Xlo            Xhi            Ylo            Yhi            Zlo            Zhi           Volume           Dt            Time           CPU           T/CPU          S/CPU         CPULeft
101905000   5136.3661      54.251214     -53601765       1.5121451      13764.168     -53588001       747.17273      747.17273      747.17273      2126.4136      2873.5864      2126.4136      2873.5864      2126.4136      2873.5864      4.1712194e+08  0.1            24195000       0              0              0              0
Averages over the last 751 of 1501 rows, steps 102055000 to 102205000:
Temp Press PotEng Density KinEng TotEng Lx Ly Lz Xlo Xhi Ylo Yhi Zlo Zhi Volume Dt
307.404 1.06014 -5.37099e+07 1.51618 823.764 -5.37091e+07 746.51 746.51 746.51 2126.75 2873.25 2126.75 2873.25 2126.75 2873.25 4.16013e+08 0.1
Loop time of 59.0002 on 1 procs for 300000 steps with 900 atoms

# run_style
run_style verlet

# write restart
write_restart ./pgnpmf/100900/equpmf146.res
System init for write_restart ...
Generated 0 of 1 mixed pair_coeff terms from geometric mixing rule
