LAMMPS (23 Jun 2022 - Update 1)
# Read restart
read_restart ./pgnpmf/100900/equpmf131.res
Reading restart file ...
  restart file = 23 Jun 2022, LAMMPS = 23 Jun 2022
  restoring atom style atomic from restart
  orthogonal box = (2121.9829 2121.9829 2121.9829) to (2878.0171 2878.0171 2878.0171)
  restoring pair style table from restart
  900 atoms
  read_restart CPU = 0.003 seconds

# Settings

pair_style table spline 9941

pair_coeff 1 1 ./pgnpmf/N20.txt DE_GNP 75.6
pair_coeff 2 2 ./pgnpmf/N100.txt DE_GNP 115.92
pair_coeff 1 2 ./pgnpmf/mixed_potential.txt DE_GNP 95.66

#Neigh_list Calc Frequency

neigh_modify delay 0 every 1 check yes

# Saving Frequency (50 frames)

variable ts_save equal 5000

# Dump
#dump_modify 1 first no sort id
#dump 2 all cfg 50000 ./equilibration/trajectory/ovito/dumpgen.tens_*.cfg mass type xs ys zs fx fy fz

# thermo_style
thermo_style custom step temp press pe density ke etotal lx ly lz xlo xhi ylo yhi zlo zhi vol dt time cpu tpcpu spcpu cpuremain

# run info
timestep 0.1
thermo 200

# fix

fix 1 all momentum 1000 linear 1 1 1 angular
variable T equal 300
fix 2 all nvt temp 300 370000 100.0

run 100000
Generated 0 of 1 mixed pair_coeff terms from geometric mixing rule
Unused restart file global fix info:
  fix style: npt, fix ID: 5
  update every 1 steps, delay 0 steps, check yes
Step          Temp          Press          PotEng        Density         KinEng         TotEng           Lx             Ly             Lz            Xlo            Xhi            Ylo            Yhi            Zlo            Zhi           Volume           Dt            Time           CPU           T/CPU          S/CPU         CPULeft
91705000   306.37594      0.037735843   -52824975       1.4595949      821.0104      -52824154       756.0341       756.0341       756.0341       2121.9829      2878.0171      2121.9829      2878.0171      2121.9829      2878.0171      4.3213969e+08  0.1            23175000       0              0              0              0
Averages over the last 251 of 501 rows, steps 91755000 to 91805000:
Temp Press PotEng Density KinEng TotEng Lx Ly Lz Xlo Xhi Ylo Yhi Zlo Zhi Volume Dt
277722 556.244 -5.28334e+07 1.45959 744225 -5.20891e+07 756.034 756.034 756.034 2121.98 2878.02 2121.98 2878.02 2121.98 2878.02 4.3214e+08 0.1
Loop time of 16.8094 on 1 procs for 100000 steps with 900 atoms

unfix 2

fix 3 all nvt temp 370000 370000 $(100.0*dt) #iso 1.0 1.0 $(1000.0*dt)
fix 3 all nvt temp 370000 370000 10

run 200000
Generated 0 of 1 mixed pair_coeff terms from geometric mixing rule
Step          Temp          Press          PotEng        Density         KinEng         TotEng           Lx             Ly             Lz            Xlo            Xhi            Ylo            Yhi            Zlo            Zhi           Volume           Dt            Time           CPU           T/CPU          S/CPU         CPULeft
91805000   368577.33      909.85455     -52957513       1.4595949      987694.45     -51969819       756.0341       756.0341       756.0341       2121.9829      2878.0171      2121.9829      2878.0171      2121.9829      2878.0171      4.3213969e+08  0.1            23185000       0              0              0              0
Averages over the last 501 of 1001 rows, steps 91905000 to 92005000:
Temp Press PotEng Density KinEng TotEng Lx Ly Lz Xlo Xhi Ylo Yhi Zlo Zhi Volume Dt
370128 1293.43 -5.26452e+07 1.45959 991849 -5.16534e+07 756.034 756.034 756.034 2121.98 2878.02 2121.98 2878.02 2121.98 2878.02 4.3214e+08 0.1
Loop time of 33.9921 on 1 procs for 200000 steps with 900 atoms

unfix 3

fix 4 all nvt temp 370000 300 100.0

run 100000
Generated 0 of 1 mixed pair_coeff terms from geometric mixing rule
Step          Temp          Press          PotEng        Density         KinEng         TotEng           Lx             Ly             Lz            Xlo            Xhi            Ylo            Yhi            Zlo            Zhi           Volume           Dt            Time           CPU           T/CPU          S/CPU         CPULeft
92005000   378230.67      1167.4094     -52440652       1.4595949      1013563       -51427089       756.0341       756.0341       756.0341       2121.9829      2878.0171      2121.9829      2878.0171      2121.9829      2878.0171      4.3213969e+08  0.1            23205000       0              0              0              0
Averages over the last 251 of 501 rows, steps 92055000 to 92105000:
Temp Press PotEng Density KinEng TotEng Lx Ly Lz Xlo Xhi Ylo Yhi Zlo Zhi Volume Dt
96350.3 405.851 -5.25416e+07 1.45959 258195 -5.22834e+07 756.034 756.034 756.034 2121.98 2878.02 2121.98 2878.02 2121.98 2878.02 4.3214e+08 0.1
Loop time of 16.8131 on 1 procs for 100000 steps with 900 atoms

unfix 4

fix 5 all npt temp 300 300 $(100.0*dt) iso 1.0 1.0 $(1000.0*dt)
fix 5 all npt temp 300 300 10 iso 1.0 1.0 $(1000.0*dt)
fix 5 all npt temp 300 300 10 iso 1.0 1.0 100

run 300000
Generated 0 of 1 mixed pair_coeff terms from geometric mixing rule
Step          Temp          Press          PotEng        Density         KinEng         TotEng           Lx             Ly             Lz            Xlo            Xhi            Ylo            Yhi            Zlo            Zhi           Volume           Dt            Time           CPU           T/CPU          S/CPU         CPULeft
92105000   5141.0669      117.70193     -52685125       1.4595949      13776.765     -52671348       756.0341       756.0341       756.0341       2121.9829      2878.0171      2121.9829      2878.0171      2121.9829      2878.0171      4.3213969e+08  0.1            23215000       0              0              0              0
Averages over the last 751 of 1501 rows, steps 92255000 to 92405000:
Temp Press PotEng Density KinEng TotEng Lx Ly Lz Xlo Xhi Ylo Yhi Zlo Zhi Volume Dt
307.318 0.913649 -5.2809e+07 1.46136 823.536 -5.28082e+07 755.729 755.729 755.729 2122.14 2877.86 2122.14 2877.86 2122.14 2877.86 4.31617e+08 0.1
Loop time of 58.1809 on 1 procs for 300000 steps with 900 atoms

# run_style
run_style verlet

# write restart
write_restart ./pgnpmf/100900/equpmf132.res
System init for write_restart ...
Generated 0 of 1 mixed pair_coeff terms from geometric mixing rule
