LAMMPS (23 Jun 2022 - Update 1)
# Read restart
read_restart ./pgnpmf/100900/equpmf16.res
Reading restart file ...
  restart file = 23 Jun 2022, LAMMPS = 23 Jun 2022
  restoring atom style atomic from restart
  orthogonal box = (1675.9039 1675.9039 1675.9039) to (3324.0961 3324.0961 3324.0961)
  restoring pair style table from restart
  900 atoms
  read_restart CPU = 0.018 seconds

# Settings

pair_style table spline 9941

pair_coeff 1 1 ./pgnpmf/N20.txt DE_GNP 75.6
pair_coeff 2 2 ./pgnpmf/N100.txt DE_GNP 115.92
pair_coeff 1 2 ./pgnpmf/mixed_potential.txt DE_GNP 95.66

#Neigh_list Calc Frequency

neigh_modify delay 0 every 1 check yes

# Saving Frequency (50 frames)

variable ts_save equal 5000

# Dump
#dump_modify 1 first no sort id
#dump 2 all cfg 50000 ./equilibration/trajectory/ovito/dumpgen.tens_*.cfg mass type xs ys zs fx fy fz

# thermo_style
thermo_style custom step temp press pe density ke etotal lx ly lz xlo xhi ylo yhi zlo zhi vol dt time cpu tpcpu spcpu cpuremain

# run info
timestep 0.5
thermo 200

# fix

fix 1 all momentum 1000 linear 1 1 1 angular
variable T equal 300
fix 2 all nvt temp 300 370000 100.0

run 100000
Generated 0 of 1 mixed pair_coeff terms from geometric mixing rule
Unused restart file global fix info:
  fix style: npt, fix ID: 5
  update every 1 steps, delay 0 steps, check yes
Step          Temp          Press          PotEng        Density         KinEng         TotEng           Lx             Ly             Lz            Xlo            Xhi            Ylo            Yhi            Zlo            Zhi           Volume           Dt            Time           CPU           T/CPU          S/CPU         CPULeft
11205000   305.38149      1.2529326     -24176025       0.14087468     818.34552     -24175207       1648.1922      1648.1922      1648.1922      1675.9039      3324.0961      1675.9039      3324.0961      1675.9039      3324.0961      4.477376e+09   0.5            5605000        0              0              0              0
Averages over the last 251 of 501 rows, steps 11255000 to 11305000:
Temp Press PotEng Density KinEng TotEng Lx Ly Lz Xlo Xhi Ylo Yhi Zlo Zhi Volume Dt
277293 2.86955 -2.3597e+07 0.140875 743075 -2.2854e+07 1648.19 1648.19 1648.19 1675.9 3324.1 1675.9 3324.1 1675.9 3324.1 4.47738e+09 0.5
Loop time of 9.60983 on 4 procs for 100000 steps with 900 atoms

unfix 2

fix 3 all nvt temp 370000 370000 $(100.0*dt) #iso 1.0 1.0 $(1000.0*dt)
fix 3 all nvt temp 370000 370000 50

run 200000
Generated 0 of 1 mixed pair_coeff terms from geometric mixing rule
Step          Temp          Press          PotEng        Density         KinEng         TotEng           Lx             Ly             Lz            Xlo            Xhi            Ylo            Yhi            Zlo            Zhi           Volume           Dt            Time           CPU           T/CPU          S/CPU         CPULeft
11305000   378667.04      2.2606188     -23143681       0.14087468     1014732.3     -22128949       1648.1922      1648.1922      1648.1922      1675.9039      3324.0961      1675.9039      3324.0961      1675.9039      3324.0961      4.477376e+09   0.5            5655000        0              0              0              0
Averages over the last 501 of 1001 rows, steps 11405000 to 11505000:
Temp Press PotEng Density KinEng TotEng Lx Ly Lz Xlo Xhi Ylo Yhi Zlo Zhi Volume Dt
369550 4.76935 -2.29856e+07 0.140875 990300 -2.19953e+07 1648.19 1648.19 1648.19 1675.9 3324.1 1675.9 3324.1 1675.9 3324.1 4.47738e+09 0.5
Loop time of 19.0945 on 4 procs for 200000 steps with 900 atoms

unfix 3

fix 4 all nvt temp 370000 300 100.0

run 100000
Generated 0 of 1 mixed pair_coeff terms from geometric mixing rule
Step          Temp          Press          PotEng        Density         KinEng         TotEng           Lx             Ly             Lz            Xlo            Xhi            Ylo            Yhi            Zlo            Zhi           Volume           Dt            Time           CPU           T/CPU          S/CPU         CPULeft
11505000   374838.56      2.3255109     -22846289       0.14087468     1004473       -21841816       1648.1922      1648.1922      1648.1922      1675.9039      3324.0961      1675.9039      3324.0961      1675.9039      3324.0961      4.477376e+09   0.5            5755000        0              0              0              0
Averages over the last 251 of 501 rows, steps 11555000 to 11605000:
Temp Press PotEng Density KinEng TotEng Lx Ly Lz Xlo Xhi Ylo Yhi Zlo Zhi Volume Dt
93015.4 -11.1287 -2.39721e+07 0.140875 249258 -2.37229e+07 1648.19 1648.19 1648.19 1675.9 3324.1 1675.9 3324.1 1675.9 3324.1 4.47738e+09 0.5
Loop time of 9.6206 on 4 procs for 100000 steps with 900 atoms

unfix 4

fix 5 all npt temp 300 300 $(100.0*dt) iso 1.0 1.0 $(1000.0*dt)
fix 5 all npt temp 300 300 50 iso 1.0 1.0 $(1000.0*dt)
fix 5 all npt temp 300 300 50 iso 1.0 1.0 500

run 300000
Generated 0 of 1 mixed pair_coeff terms from geometric mixing rule
Step          Temp          Press          PotEng        Density         KinEng         TotEng           Lx             Ly             Lz            Xlo            Xhi            Ylo            Yhi            Zlo            Zhi           Volume           Dt            Time           CPU           T/CPU          S/CPU         CPULeft
11605000   1327.9132     -14.430602     -24383759       0.14087468     3558.473      -24380201       1648.1922      1648.1922      1648.1922      1675.9039      3324.0961      1675.9039      3324.0961      1675.9039      3324.0961      4.477376e+09   0.5            5805000        0              0              0              0
Averages over the last 751 of 1501 rows, steps 11755000 to 11905000:
Temp Press PotEng Density KinEng TotEng Lx Ly Lz Xlo Xhi Ylo Yhi Zlo Zhi Volume Dt
306.329 0.987655 -2.46865e+07 0.144397 820.886 -2.46857e+07 1634.68 1634.68 1634.68 1682.66 3317.34 1682.66 3317.34 1682.66 3317.34 4.36818e+09 0.5
Loop time of 35.2802 on 4 procs for 300000 steps with 900 atoms

# run_style
run_style verlet

# write restart
write_restart ./pgnpmf/100900/equpmf17.res
System init for write_restart ...
Generated 0 of 1 mixed pair_coeff terms from geometric mixing rule
