LAMMPS (23 Jun 2022 - Update 1)
# Read restart
read_restart ./pgnpmf/100900/equpmf118.res
Reading restart file ...
  restart file = 23 Jun 2022, LAMMPS = 23 Jun 2022
  restoring atom style atomic from restart
  orthogonal box = (2104.1412 2104.1412 2104.1412) to (2895.8588 2895.8588 2895.8588)
  restoring pair style table from restart
  900 atoms
  read_restart CPU = 0.005 seconds

# Settings

pair_style table spline 9941

pair_coeff 1 1 ./pgnpmf/N20.txt DE_GNP 75.6
pair_coeff 2 2 ./pgnpmf/N100.txt DE_GNP 115.92
pair_coeff 1 2 ./pgnpmf/mixed_potential.txt DE_GNP 95.66

#Neigh_list Calc Frequency

neigh_modify delay 0 every 1 check yes

# Saving Frequency (50 frames)

variable ts_save equal 5000

# Dump
#dump_modify 1 first no sort id
#dump 2 all cfg 50000 ./equilibration/trajectory/ovito/dumpgen.tens_*.cfg mass type xs ys zs fx fy fz

# thermo_style
thermo_style custom step temp press pe density ke etotal lx ly lz xlo xhi ylo yhi zlo zhi vol dt time cpu tpcpu spcpu cpuremain

# run info
timestep 0.1
thermo 200

# fix

fix 1 all momentum 1000 linear 1 1 1 angular
variable T equal 300
fix 2 all nvt temp 300 370000 100.0

run 100000
Generated 0 of 1 mixed pair_coeff terms from geometric mixing rule
Unused restart file global fix info:
  fix style: npt, fix ID: 5
  update every 1 steps, delay 0 steps, check yes
Step          Temp          Press          PotEng        Density         KinEng         TotEng           Lx             Ly             Lz            Xlo            Xhi            Ylo            Yhi            Zlo            Zhi           Volume           Dt            Time           CPU           T/CPU          S/CPU         CPULeft
82605000   306.80777      2.1986314     -50717321       1.271          822.16758     -50716499       791.71764      791.71764      791.71764      2104.1412      2895.8588      2104.1412      2895.8588      2104.1412      2895.8588      4.9626193e+08  0.1            22265000       0              0              0              0
Averages over the last 251 of 501 rows, steps 82655000 to 82705000:
Temp Press PotEng Density KinEng TotEng Lx Ly Lz Xlo Xhi Ylo Yhi Zlo Zhi Volume Dt
277714 404.251 -5.09187e+07 1.271 744204 -5.01745e+07 791.718 791.718 791.718 2104.14 2895.86 2104.14 2895.86 2104.14 2895.86 4.96262e+08 0.1
Loop time of 14.5434 on 1 procs for 100000 steps with 900 atoms

unfix 2

fix 3 all nvt temp 370000 370000 $(100.0*dt) #iso 1.0 1.0 $(1000.0*dt)
fix 3 all nvt temp 370000 370000 10

run 200000
Generated 0 of 1 mixed pair_coeff terms from geometric mixing rule
Step          Temp          Press          PotEng        Density         KinEng         TotEng           Lx             Ly             Lz            Xlo            Xhi            Ylo            Yhi            Zlo            Zhi           Volume           Dt            Time           CPU           T/CPU          S/CPU         CPULeft
82705000   372792.65      619.88304     -50858446       1.271          998990.44     -49859456       791.71764      791.71764      791.71764      2104.1412      2895.8588      2104.1412      2895.8588      2104.1412      2895.8588      4.9626193e+08  0.1            22275000       0              0              0              0
Averages over the last 501 of 1001 rows, steps 82805000 to 82905000:
Temp Press PotEng Density KinEng TotEng Lx Ly Lz Xlo Xhi Ylo Yhi Zlo Zhi Volume Dt
369955 297.284 -5.03475e+07 1.271 991387 -4.93561e+07 791.718 791.718 791.718 2104.14 2895.86 2104.14 2895.86 2104.14 2895.86 4.96262e+08 0.1
Loop time of 29.3104 on 1 procs for 200000 steps with 900 atoms

unfix 3

fix 4 all nvt temp 370000 300 100.0

run 100000
Generated 0 of 1 mixed pair_coeff terms from geometric mixing rule
Step          Temp          Press          PotEng        Density         KinEng         TotEng           Lx             Ly             Lz            Xlo            Xhi            Ylo            Yhi            Zlo            Zhi           Volume           Dt            Time           CPU           T/CPU          S/CPU         CPULeft
82905000   367775.94      214.1256      -50116964       1.271          985546.91     -49131417       791.71764      791.71764      791.71764      2104.1412      2895.8588      2104.1412      2895.8588      2104.1412      2895.8588      4.9626193e+08  0.1            22295000       0              0              0              0
Averages over the last 251 of 501 rows, steps 82955000 to 83005000:
Temp Press PotEng Density KinEng TotEng Lx Ly Lz Xlo Xhi Ylo Yhi Zlo Zhi Volume Dt
95773.3 -208.699 -5.0173e+07 1.271 256648 -4.99164e+07 791.718 791.718 791.718 2104.14 2895.86 2104.14 2895.86 2104.14 2895.86 4.96262e+08 0.1
Loop time of 14.4732 on 1 procs for 100000 steps with 900 atoms

unfix 4

fix 5 all npt temp 300 300 $(100.0*dt) iso 1.0 1.0 $(1000.0*dt)
fix 5 all npt temp 300 300 10 iso 1.0 1.0 $(1000.0*dt)
fix 5 all npt temp 300 300 10 iso 1.0 1.0 100

run 300000
Generated 0 of 1 mixed pair_coeff terms from geometric mixing rule
Step          Temp          Press          PotEng        Density         KinEng         TotEng           Lx             Ly             Lz            Xlo            Xhi            Ylo            Yhi            Zlo            Zhi           Volume           Dt            Time           CPU           T/CPU          S/CPU         CPULeft
83005000   5057.9893     -449.55343     -50290066       1.271          13554.138     -50276512       791.71764      791.71764      791.71764      2104.1412      2895.8588      2104.1412      2895.8588      2104.1412      2895.8588      4.9626193e+08  0.1            22305000       0              0              0              0
Averages over the last 751 of 1501 rows, steps 83155000 to 83305000:
Temp Press PotEng Density KinEng TotEng Lx Ly Lz Xlo Xhi Ylo Yhi Zlo Zhi Volume Dt
308.866 1.03107 -5.08202e+07 1.29428 827.682 -5.08194e+07 786.941 786.941 786.941 2106.53 2893.47 2106.53 2893.47 2106.53 2893.47 4.87334e+08 0.1
Loop time of 51.2357 on 1 procs for 300000 steps with 900 atoms

# run_style
run_style verlet

# write restart
write_restart ./pgnpmf/100900/equpmf119.res
System init for write_restart ...
Generated 0 of 1 mixed pair_coeff terms from geometric mixing rule
