LAMMPS (23 Jun 2022 - Update 1)
# Read restart
read_restart ./pgnpmf/100900/equpmf23.res
Reading restart file ...
  restart file = 23 Jun 2022, LAMMPS = 23 Jun 2022
  restoring atom style atomic from restart
  orthogonal box = (1713.3049 1713.3049 1713.3049) to (3286.6951 3286.6951 3286.6951)
  restoring pair style table from restart
  900 atoms
  read_restart CPU = 0.016 seconds

# Settings

pair_style table spline 9941

pair_coeff 1 1 ./pgnpmf/N20.txt DE_GNP 75.6
pair_coeff 2 2 ./pgnpmf/N100.txt DE_GNP 115.92
pair_coeff 1 2 ./pgnpmf/mixed_potential.txt DE_GNP 95.66

#Neigh_list Calc Frequency

neigh_modify delay 0 every 1 check yes

# Saving Frequency (50 frames)

variable ts_save equal 5000

# Dump
#dump_modify 1 first no sort id
#dump 2 all cfg 50000 ./equilibration/trajectory/ovito/dumpgen.tens_*.cfg mass type xs ys zs fx fy fz

# thermo_style
thermo_style custom step temp press pe density ke etotal lx ly lz xlo xhi ylo yhi zlo zhi vol dt time cpu tpcpu spcpu cpuremain

# run info
timestep 0.5
thermo 200

# fix

fix 1 all momentum 1000 linear 1 1 1 angular
variable T equal 300
fix 2 all nvt temp 300 370000 100.0

run 100000
Generated 0 of 1 mixed pair_coeff terms from geometric mixing rule
Unused restart file global fix info:
  fix style: npt, fix ID: 5
  update every 1 steps, delay 0 steps, check yes
Step          Temp          Press          PotEng        Density         KinEng         TotEng           Lx             Ly             Lz            Xlo            Xhi            Ylo            Yhi            Zlo            Zhi           Volume           Dt            Time           CPU           T/CPU          S/CPU         CPULeft
16105000   297.02473      0.44631409    -27752006       0.16193738     795.95151     -27751210       1573.3903      1573.3903      1573.3903      1713.3049      3286.6951      1713.3049      3286.6951      1713.3049      3286.6951      3.8950172e+09  0.5            8055000        0              0              0              0
Averages over the last 251 of 501 rows, steps 16155000 to 16205000:
Temp Press PotEng Density KinEng TotEng Lx Ly Lz Xlo Xhi Ylo Yhi Zlo Zhi Volume Dt
277382 6.50187 -2.71794e+07 0.161937 743314 -2.64361e+07 1573.39 1573.39 1573.39 1713.3 3286.7 1713.3 3286.7 1713.3 3286.7 3.89502e+09 0.5
Loop time of 9.89368 on 4 procs for 100000 steps with 900 atoms

unfix 2

fix 3 all nvt temp 370000 370000 $(100.0*dt) #iso 1.0 1.0 $(1000.0*dt)
fix 3 all nvt temp 370000 370000 50

run 200000
Generated 0 of 1 mixed pair_coeff terms from geometric mixing rule
Step          Temp          Press          PotEng        Density         KinEng         TotEng           Lx             Ly             Lz            Xlo            Xhi            Ylo            Yhi            Zlo            Zhi           Volume           Dt            Time           CPU           T/CPU          S/CPU         CPULeft
16205000   354097.72      5.2354221     -27140990       0.16193738     948892.74     -26192097       1573.3903      1573.3903      1573.3903      1713.3049      3286.6951      1713.3049      3286.6951      1713.3049      3286.6951      3.8950172e+09  0.5            8105000        0              0              0              0
Averages over the last 501 of 1001 rows, steps 16305000 to 16405000:
Temp Press PotEng Density KinEng TotEng Lx Ly Lz Xlo Xhi Ylo Yhi Zlo Zhi Volume Dt
369837 8.77328 -2.70459e+07 0.161937 991069 -2.60549e+07 1573.39 1573.39 1573.39 1713.3 3286.7 1713.3 3286.7 1713.3 3286.7 3.89502e+09 0.5
Loop time of 19.6944 on 4 procs for 200000 steps with 900 atoms

unfix 3

fix 4 all nvt temp 370000 300 100.0

run 100000
Generated 0 of 1 mixed pair_coeff terms from geometric mixing rule
Step          Temp          Press          PotEng        Density         KinEng         TotEng           Lx             Ly             Lz            Xlo            Xhi            Ylo            Yhi            Zlo            Zhi           Volume           Dt            Time           CPU           T/CPU          S/CPU         CPULeft
16405000   363581.83      8.9570359     -27191355       0.16193738     974307.77     -26217047       1573.3903      1573.3903      1573.3903      1713.3049      3286.6951      1713.3049      3286.6951      1713.3049      3286.6951      3.8950172e+09  0.5            8205000        0              0              0              0
Averages over the last 251 of 501 rows, steps 16455000 to 16505000:
Temp Press PotEng Density KinEng TotEng Lx Ly Lz Xlo Xhi Ylo Yhi Zlo Zhi Volume Dt
93163.7 -1.7978 -2.76765e+07 0.161937 249655 -2.74268e+07 1573.39 1573.39 1573.39 1713.3 3286.7 1713.3 3286.7 1713.3 3286.7 3.89502e+09 0.5
Loop time of 9.86197 on 4 procs for 100000 steps with 900 atoms

unfix 4

fix 5 all npt temp 300 300 $(100.0*dt) iso 1.0 1.0 $(1000.0*dt)
fix 5 all npt temp 300 300 50 iso 1.0 1.0 $(1000.0*dt)
fix 5 all npt temp 300 300 50 iso 1.0 1.0 500

run 300000
Generated 0 of 1 mixed pair_coeff terms from geometric mixing rule
Step          Temp          Press          PotEng        Density         KinEng         TotEng           Lx             Ly             Lz            Xlo            Xhi            Ylo            Yhi            Zlo            Zhi           Volume           Dt            Time           CPU           T/CPU          S/CPU         CPULeft
16505000   1321.6144     -9.1207174     -27857974       0.16193738     3541.5938     -27854433       1573.3903      1573.3903      1573.3903      1713.3049      3286.6951      1713.3049      3286.6951      1713.3049      3286.6951      3.8950172e+09  0.5            8255000        0              0              0              0
Averages over the last 751 of 1501 rows, steps 16655000 to 16805000:
Temp Press PotEng Density KinEng TotEng Lx Ly Lz Xlo Xhi Ylo Yhi Zlo Zhi Volume Dt
304.461 0.987457 -2.80983e+07 0.16388 815.878 -2.80975e+07 1567.15 1567.15 1567.15 1716.42 3283.58 1716.42 3283.58 1716.42 3283.58 3.84886e+09 0.5
Loop time of 36.5313 on 4 procs for 300000 steps with 900 atoms

# run_style
run_style verlet

# write restart
write_restart ./pgnpmf/100900/equpmf24.res
System init for write_restart ...
Generated 0 of 1 mixed pair_coeff terms from geometric mixing rule
