LAMMPS (23 Jun 2022 - Update 1)
# Read restart
read_restart ./pgnpmf/100900/equpmf128.res
Reading restart file ...
  restart file = 23 Jun 2022, LAMMPS = 23 Jun 2022
  restoring atom style atomic from restart
  orthogonal box = (2118.7438 2118.7438 2118.7438) to (2881.2562 2881.2562 2881.2562)
  restoring pair style table from restart
  900 atoms
  read_restart CPU = 0.004 seconds

# Settings

pair_style table spline 9941

pair_coeff 1 1 ./pgnpmf/N20.txt DE_GNP 75.6
pair_coeff 2 2 ./pgnpmf/N100.txt DE_GNP 115.92
pair_coeff 1 2 ./pgnpmf/mixed_potential.txt DE_GNP 95.66

#Neigh_list Calc Frequency

neigh_modify delay 0 every 1 check yes

# Saving Frequency (50 frames)

variable ts_save equal 5000

# Dump
#dump_modify 1 first no sort id
#dump 2 all cfg 50000 ./equilibration/trajectory/ovito/dumpgen.tens_*.cfg mass type xs ys zs fx fy fz

# thermo_style
thermo_style custom step temp press pe density ke etotal lx ly lz xlo xhi ylo yhi zlo zhi vol dt time cpu tpcpu spcpu cpuremain

# run info
timestep 0.1
thermo 200

# fix

fix 1 all momentum 1000 linear 1 1 1 angular
variable T equal 300
fix 2 all nvt temp 300 370000 100.0

run 100000
Generated 0 of 1 mixed pair_coeff terms from geometric mixing rule
Unused restart file global fix info:
  fix style: npt, fix ID: 5
  update every 1 steps, delay 0 steps, check yes
Step          Temp          Press          PotEng        Density         KinEng         TotEng           Lx             Ly             Lz            Xlo            Xhi            Ylo            Yhi            Zlo            Zhi           Volume           Dt            Time           CPU           T/CPU          S/CPU         CPULeft
89605000   306.08006      2.3415176     -52581575       1.4227078      820.21749     -52580754       762.51244      762.51244      762.51244      2118.7438      2881.2562      2118.7438      2881.2562      2118.7438      2881.2562      4.4334396e+08  0.1            22965000       0              0              0              0
Averages over the last 251 of 501 rows, steps 89655000 to 89705000:
Temp Press PotEng Density KinEng TotEng Lx Ly Lz Xlo Xhi Ylo Yhi Zlo Zhi Volume Dt
276667 599.68 -5.26605e+07 1.42271 741399 -5.19191e+07 762.512 762.512 762.512 2118.74 2881.26 2118.74 2881.26 2118.74 2881.26 4.43344e+08 0.1
Loop time of 17.3751 on 1 procs for 100000 steps with 900 atoms

unfix 2

fix 3 all nvt temp 370000 370000 $(100.0*dt) #iso 1.0 1.0 $(1000.0*dt)
fix 3 all nvt temp 370000 370000 10

run 200000
Generated 0 of 1 mixed pair_coeff terms from geometric mixing rule
Step          Temp          Press          PotEng        Density         KinEng         TotEng           Lx             Ly             Lz            Xlo            Xhi            Ylo            Yhi            Zlo            Zhi           Volume           Dt            Time           CPU           T/CPU          S/CPU         CPULeft
89705000   370764.03      968.35146     -52645191       1.4227078      993554.25     -51651637       762.51244      762.51244      762.51244      2118.7438      2881.2562      2118.7438      2881.2562      2118.7438      2881.2562      4.4334396e+08  0.1            22975000       0              0              0              0
Averages over the last 501 of 1001 rows, steps 89805000 to 89905000:
Temp Press PotEng Density KinEng TotEng Lx Ly Lz Xlo Xhi Ylo Yhi Zlo Zhi Volume Dt
369867 954.347 -5.21399e+07 1.42271 991150 -5.11487e+07 762.512 762.512 762.512 2118.74 2881.26 2118.74 2881.26 2118.74 2881.26 4.43344e+08 0.1
Loop time of 35.3703 on 1 procs for 200000 steps with 900 atoms

unfix 3

fix 4 all nvt temp 370000 300 100.0

run 100000
Generated 0 of 1 mixed pair_coeff terms from geometric mixing rule
Step          Temp          Press          PotEng        Density         KinEng         TotEng           Lx             Ly             Lz            Xlo            Xhi            Ylo            Yhi            Zlo            Zhi           Volume           Dt            Time           CPU           T/CPU          S/CPU         CPULeft
89905000   366503.76      772.45682     -51859549       1.4227078      982137.81     -50877412       762.51244      762.51244      762.51244      2118.7438      2881.2562      2118.7438      2881.2562      2118.7438      2881.2562      4.4334396e+08  0.1            22995000       0              0              0              0
Averages over the last 251 of 501 rows, steps 89955000 to 90005000:
Temp Press PotEng Density KinEng TotEng Lx Ly Lz Xlo Xhi Ylo Yhi Zlo Zhi Volume Dt
96245.5 22.0234 -5.19848e+07 1.42271 257914 -5.17269e+07 762.512 762.512 762.512 2118.74 2881.26 2118.74 2881.26 2118.74 2881.26 4.43344e+08 0.1
Loop time of 17.2297 on 1 procs for 100000 steps with 900 atoms

unfix 4

fix 5 all npt temp 300 300 $(100.0*dt) iso 1.0 1.0 $(1000.0*dt)
fix 5 all npt temp 300 300 10 iso 1.0 1.0 $(1000.0*dt)
fix 5 all npt temp 300 300 10 iso 1.0 1.0 100

run 300000
Generated 0 of 1 mixed pair_coeff terms from geometric mixing rule
Step          Temp          Press          PotEng        Density         KinEng         TotEng           Lx             Ly             Lz            Xlo            Xhi            Ylo            Yhi            Zlo            Zhi           Volume           Dt            Time           CPU           T/CPU          S/CPU         CPULeft
90005000   5060.9128     -240.11977     -52083176       1.4227078      13561.972     -52069614       762.51244      762.51244      762.51244      2118.7438      2881.2562      2118.7438      2881.2562      2118.7438      2881.2562      4.4334396e+08  0.1            23005000       0              0              0              0
Averages over the last 751 of 1501 rows, steps 90155000 to 90305000:
Temp Press PotEng Density KinEng TotEng Lx Ly Lz Xlo Xhi Ylo Yhi Zlo Zhi Volume Dt
307.607 0.816993 -5.24187e+07 1.43671 824.308 -5.24179e+07 760.027 760.027 760.027 2119.99 2880.01 2119.99 2880.01 2119.99 2880.01 4.39024e+08 0.1
Loop time of 60.0123 on 1 procs for 300000 steps with 900 atoms

# run_style
run_style verlet

# write restart
write_restart ./pgnpmf/100900/equpmf129.res
System init for write_restart ...
Generated 0 of 1 mixed pair_coeff terms from geometric mixing rule
