LAMMPS (23 Jun 2022 - Update 1)
# Read restart
read_restart ./pgnpmf/100900/equpmf120.res
Reading restart file ...
  restart file = 23 Jun 2022, LAMMPS = 23 Jun 2022
  restoring atom style atomic from restart
  orthogonal box = (2108.8041 2108.8041 2108.8041) to (2891.1959 2891.1959 2891.1959)
  restoring pair style table from restart
  900 atoms
  read_restart CPU = 0.005 seconds

# Settings

pair_style table spline 9941

pair_coeff 1 1 ./pgnpmf/N20.txt DE_GNP 75.6
pair_coeff 2 2 ./pgnpmf/N100.txt DE_GNP 115.92
pair_coeff 1 2 ./pgnpmf/mixed_potential.txt DE_GNP 95.66

#Neigh_list Calc Frequency

neigh_modify delay 0 every 1 check yes

# Saving Frequency (50 frames)

variable ts_save equal 5000

# Dump
#dump_modify 1 first no sort id
#dump 2 all cfg 50000 ./equilibration/trajectory/ovito/dumpgen.tens_*.cfg mass type xs ys zs fx fy fz

# thermo_style
thermo_style custom step temp press pe density ke etotal lx ly lz xlo xhi ylo yhi zlo zhi vol dt time cpu tpcpu spcpu cpuremain

# run info
timestep 0.1
thermo 200

# fix

fix 1 all momentum 1000 linear 1 1 1 angular
variable T equal 300
fix 2 all nvt temp 300 370000 100.0

run 100000
Generated 0 of 1 mixed pair_coeff terms from geometric mixing rule
Unused restart file global fix info:
  fix style: npt, fix ID: 5
  update every 1 steps, delay 0 steps, check yes
Step          Temp          Press          PotEng        Density         KinEng         TotEng           Lx             Ly             Lz            Xlo            Xhi            Ylo            Yhi            Zlo            Zhi           Volume           Dt            Time           CPU           T/CPU          S/CPU         CPULeft
84005000   307.15693      4.0139076     -51003507       1.3169932      823.10324     -51002684       782.39186      782.39186      782.39186      2108.8041      2891.1959      2108.8041      2891.1959      2108.8041      2891.1959      4.7893103e+08  0.1            22405000       0              0              0              0
Averages over the last 251 of 501 rows, steps 84055000 to 84105000:
Temp Press PotEng Density KinEng TotEng Lx Ly Lz Xlo Xhi Ylo Yhi Zlo Zhi Volume Dt
277569 329.405 -5.11966e+07 1.31699 743815 -5.04528e+07 782.392 782.392 782.392 2108.8 2891.2 2108.8 2891.2 2108.8 2891.2 4.78931e+08 0.1
Loop time of 14.7183 on 1 procs for 100000 steps with 900 atoms

unfix 2

fix 3 all nvt temp 370000 370000 $(100.0*dt) #iso 1.0 1.0 $(1000.0*dt)
fix 3 all nvt temp 370000 370000 10

run 200000
Generated 0 of 1 mixed pair_coeff terms from geometric mixing rule
Step          Temp          Press          PotEng        Density         KinEng         TotEng           Lx             Ly             Lz            Xlo            Xhi            Ylo            Yhi            Zlo            Zhi           Volume           Dt            Time           CPU           T/CPU          S/CPU         CPULeft
84105000   367837.28      625.24637     -51306138       1.3169932      985711.29     -50320427       782.39186      782.39186      782.39186      2108.8041      2891.1959      2108.8041      2891.1959      2108.8041      2891.1959      4.7893103e+08  0.1            22415000       0              0              0              0
Averages over the last 501 of 1001 rows, steps 84205000 to 84305000:
Temp Press PotEng Density KinEng TotEng Lx Ly Lz Xlo Xhi Ylo Yhi Zlo Zhi Volume Dt
370036 578.747 -5.08099e+07 1.31699 991602 -4.98183e+07 782.392 782.392 782.392 2108.8 2891.2 2108.8 2891.2 2108.8 2891.2 4.78931e+08 0.1
Loop time of 29.8559 on 1 procs for 200000 steps with 900 atoms

unfix 3

fix 4 all nvt temp 370000 300 100.0

run 100000
Generated 0 of 1 mixed pair_coeff terms from geometric mixing rule
Step          Temp          Press          PotEng        Density         KinEng         TotEng           Lx             Ly             Lz            Xlo            Xhi            Ylo            Yhi            Zlo            Zhi           Volume           Dt            Time           CPU           T/CPU          S/CPU         CPULeft
84305000   375395.81      524.26067     -50713914       1.3169932      1005966.3     -49707948       782.39186      782.39186      782.39186      2108.8041      2891.1959      2108.8041      2891.1959      2108.8041      2891.1959      4.7893103e+08  0.1            22435000       0              0              0              0
Averages over the last 251 of 501 rows, steps 84355000 to 84405000:
Temp Press PotEng Density KinEng TotEng Lx Ly Lz Xlo Xhi Ylo Yhi Zlo Zhi Volume Dt
96124.4 -144.97 -5.06721e+07 1.31699 257589 -5.04145e+07 782.392 782.392 782.392 2108.8 2891.2 2108.8 2891.2 2108.8 2891.2 4.78931e+08 0.1
Loop time of 14.6842 on 1 procs for 100000 steps with 900 atoms

unfix 4

fix 5 all npt temp 300 300 $(100.0*dt) iso 1.0 1.0 $(1000.0*dt)
fix 5 all npt temp 300 300 10 iso 1.0 1.0 $(1000.0*dt)
fix 5 all npt temp 300 300 10 iso 1.0 1.0 100

run 300000
Generated 0 of 1 mixed pair_coeff terms from geometric mixing rule
Step          Temp          Press          PotEng        Density         KinEng         TotEng           Lx             Ly             Lz            Xlo            Xhi            Ylo            Yhi            Zlo            Zhi           Volume           Dt            Time           CPU           T/CPU          S/CPU         CPULeft
84405000   4983.7353     -405.99709     -50694243       1.3169932      13355.156     -50680888       782.39186      782.39186      782.39186      2108.8041      2891.1959      2108.8041      2891.1959      2108.8041      2891.1959      4.7893103e+08  0.1            22445000       0              0              0              0
Averages over the last 751 of 1501 rows, steps 84555000 to 84705000:
Temp Press PotEng Density KinEng TotEng Lx Ly Lz Xlo Xhi Ylo Yhi Zlo Zhi Volume Dt
308.096 1.12641 -5.12807e+07 1.33693 825.619 -5.12798e+07 778.484 778.484 778.484 2110.76 2889.24 2110.76 2889.24 2110.76 2889.24 4.7179e+08 0.1
Loop time of 51.6358 on 1 procs for 300000 steps with 900 atoms

# run_style
run_style verlet

# write restart
write_restart ./pgnpmf/100900/equpmf121.res
System init for write_restart ...
Generated 0 of 1 mixed pair_coeff terms from geometric mixing rule
