LAMMPS (23 Jun 2022 - Update 1)
# Read restart
read_restart ./pgnpmf/100900/equpmf12.res
Reading restart file ...
  restart file = 23 Jun 2022, LAMMPS = 23 Jun 2022
  restoring atom style atomic from restart
  orthogonal box = (1613.8763 1613.8763 1613.8763) to (3386.1237 3386.1237 3386.1237)
  restoring pair style table from restart
  900 atoms
  read_restart CPU = 0.016 seconds

# Settings

pair_style table spline 9941

pair_coeff 1 1 ./pgnpmf/N20.txt DE_GNP 75.6
pair_coeff 2 2 ./pgnpmf/N100.txt DE_GNP 115.92
pair_coeff 1 2 ./pgnpmf/mixed_potential.txt DE_GNP 95.66

#Neigh_list Calc Frequency

neigh_modify delay 0 every 1 check yes

# Saving Frequency (50 frames)

variable ts_save equal 5000

# Dump
#dump_modify 1 first no sort id
#dump 2 all cfg 50000 ./equilibration/trajectory/ovito/dumpgen.tens_*.cfg mass type xs ys zs fx fy fz

# thermo_style
thermo_style custom step temp press pe density ke etotal lx ly lz xlo xhi ylo yhi zlo zhi vol dt time cpu tpcpu spcpu cpuremain

# run info
timestep 0.5
thermo 200

# fix

fix 1 all momentum 1000 linear 1 1 1 angular
variable T equal 300
fix 2 all nvt temp 300 370000 100.0

run 100000
Generated 0 of 1 mixed pair_coeff terms from geometric mixing rule
Unused restart file global fix info:
  fix style: npt, fix ID: 5
  update every 1 steps, delay 0 steps, check yes
Step          Temp          Press          PotEng        Density         KinEng         TotEng           Lx             Ly             Lz            Xlo            Xhi            Ylo            Yhi            Zlo            Zhi           Volume           Dt            Time           CPU           T/CPU          S/CPU         CPULeft
8405000   309.39667      0.83510991    -21844367       0.11331399     829.10519     -21843538       1772.2473      1772.2473      1772.2473      1613.8763      3386.1237      1613.8763      3386.1237      1613.8763      3386.1237      5.5663816e+09  0.5            4205000        0              0              0              0
Averages over the last 251 of 501 rows, steps 8455000 to 8505000:
Temp Press PotEng Density KinEng TotEng Lx Ly Lz Xlo Xhi Ylo Yhi Zlo Zhi Volume Dt
277527 7.31459 -2.18338e+07 0.113314 743701 -2.10901e+07 1772.25 1772.25 1772.25 1613.88 3386.12 1613.88 3386.12 1613.88 3386.12 5.56638e+09 0.5
Loop time of 9.47664 on 4 procs for 100000 steps with 900 atoms

unfix 2

fix 3 all nvt temp 370000 370000 $(100.0*dt) #iso 1.0 1.0 $(1000.0*dt)
fix 3 all nvt temp 370000 370000 50

run 200000
Generated 0 of 1 mixed pair_coeff terms from geometric mixing rule
Step          Temp          Press          PotEng        Density         KinEng         TotEng           Lx             Ly             Lz            Xlo            Xhi            Ylo            Yhi            Zlo            Zhi           Volume           Dt            Time           CPU           T/CPU          S/CPU         CPULeft
8505000   365438.35      2.9820174     -21473803       0.11331399     979282.76     -20494520       1772.2473      1772.2473      1772.2473      1613.8763      3386.1237      1613.8763      3386.1237      1613.8763      3386.1237      5.5663816e+09  0.5            4255000        0              0              0              0
Averages over the last 501 of 1001 rows, steps 8605000 to 8705000:
Temp Press PotEng Density KinEng TotEng Lx Ly Lz Xlo Xhi Ylo Yhi Zlo Zhi Volume Dt
370177 2.84998 -1.98631e+07 0.113314 991982 -1.88711e+07 1772.25 1772.25 1772.25 1613.88 3386.12 1613.88 3386.12 1613.88 3386.12 5.56638e+09 0.5
Loop time of 18.4502 on 4 procs for 200000 steps with 900 atoms

unfix 3

fix 4 all nvt temp 370000 300 100.0

run 100000
Generated 0 of 1 mixed pair_coeff terms from geometric mixing rule
Step          Temp          Press          PotEng        Density         KinEng         TotEng           Lx             Ly             Lz            Xlo            Xhi            Ylo            Yhi            Zlo            Zhi           Volume           Dt            Time           CPU           T/CPU          S/CPU         CPULeft
8705000   357499.74     -0.12409774    -19898977       0.11331399     958009.29     -18940967       1772.2473      1772.2473      1772.2473      1613.8763      3386.1237      1613.8763      3386.1237      1613.8763      3386.1237      5.5663816e+09  0.5            4355000        0              0              0              0
Averages over the last 251 of 501 rows, steps 8755000 to 8805000:
Temp Press PotEng Density KinEng TotEng Lx Ly Lz Xlo Xhi Ylo Yhi Zlo Zhi Volume Dt
93059.5 -21.1734 -2.11493e+07 0.113314 249376 -2.08999e+07 1772.25 1772.25 1772.25 1613.88 3386.12 1613.88 3386.12 1613.88 3386.12 5.56638e+09 0.5
Loop time of 9.28281 on 4 procs for 100000 steps with 900 atoms

unfix 4

fix 5 all npt temp 300 300 $(100.0*dt) iso 1.0 1.0 $(1000.0*dt)
fix 5 all npt temp 300 300 50 iso 1.0 1.0 $(1000.0*dt)
fix 5 all npt temp 300 300 50 iso 1.0 1.0 500

run 300000
Generated 0 of 1 mixed pair_coeff terms from geometric mixing rule
Step          Temp          Press          PotEng        Density         KinEng         TotEng           Lx             Ly             Lz            Xlo            Xhi            Ylo            Yhi            Zlo            Zhi           Volume           Dt            Time           CPU           T/CPU          S/CPU         CPULeft
8805000   1347.3294     -23.291724     -21794259       0.11331399     3610.5035     -21790648       1772.2473      1772.2473      1772.2473      1613.8763      3386.1237      1613.8763      3386.1237      1613.8763      3386.1237      5.5663816e+09  0.5            4405000        0              0              0              0
Averages over the last 751 of 1501 rows, steps 8955000 to 9105000:
Temp Press PotEng Density KinEng TotEng Lx Ly Lz Xlo Xhi Ylo Yhi Zlo Zhi Volume Dt
311.582 1.00185 -2.26002e+07 0.120326 834.961 -2.25993e+07 1737.14 1737.14 1737.14 1631.43 3368.57 1631.43 3368.57 1631.43 3368.57 5.24214e+09 0.5
Loop time of 36.0149 on 4 procs for 300000 steps with 900 atoms

# run_style
run_style verlet

# write restart
write_restart ./pgnpmf/100900/equpmf13.res
System init for write_restart ...
Generated 0 of 1 mixed pair_coeff terms from geometric mixing rule
