LAMMPS (23 Jun 2022 - Update 1)
# Read restart
read_restart ./pgnpmf/100900/equpmf27.res
Reading restart file ...
  restart file = 23 Jun 2022, LAMMPS = 23 Jun 2022
  restoring atom style atomic from restart
  orthogonal box = (1730.8782 1730.8782 1730.8782) to (3269.1218 3269.1218 3269.1218)
  restoring pair style table from restart
  900 atoms
  read_restart CPU = 0.015 seconds

# Settings

pair_style table spline 9941

pair_coeff 1 1 ./pgnpmf/N20.txt DE_GNP 75.6
pair_coeff 2 2 ./pgnpmf/N100.txt DE_GNP 115.92
pair_coeff 1 2 ./pgnpmf/mixed_potential.txt DE_GNP 95.66

#Neigh_list Calc Frequency

neigh_modify delay 0 every 1 check yes

# Saving Frequency (50 frames)

variable ts_save equal 5000

# Dump
#dump_modify 1 first no sort id
#dump 2 all cfg 50000 ./equilibration/trajectory/ovito/dumpgen.tens_*.cfg mass type xs ys zs fx fy fz

# thermo_style
thermo_style custom step temp press pe density ke etotal lx ly lz xlo xhi ylo yhi zlo zhi vol dt time cpu tpcpu spcpu cpuremain

# run info
timestep 0.5
thermo 200

# fix

fix 1 all momentum 1000 linear 1 1 1 angular
variable T equal 300
fix 2 all nvt temp 300 370000 100.0

run 100000
Generated 0 of 1 mixed pair_coeff terms from geometric mixing rule
Unused restart file global fix info:
  fix style: npt, fix ID: 5
  update every 1 steps, delay 0 steps, check yes
Step          Temp          Press          PotEng        Density         KinEng         TotEng           Lx             Ly             Lz            Xlo            Xhi            Ylo            Yhi            Zlo            Zhi           Volume           Dt            Time           CPU           T/CPU          S/CPU         CPULeft
18905000   303.35009      0.6749183     -29394475       0.17329304     812.90186     -29393662       1538.2436      1538.2436      1538.2436      1730.8782      3269.1218      1730.8782      3269.1218      1730.8782      3269.1218      3.6397821e+09  0.5            9455000        0              0              0              0
Averages over the last 251 of 501 rows, steps 18955000 to 19005000:
Temp Press PotEng Density KinEng TotEng Lx Ly Lz Xlo Xhi Ylo Yhi Zlo Zhi Volume Dt
277451 9.27103 -2.89687e+07 0.173293 743499 -2.82252e+07 1538.24 1538.24 1538.24 1730.88 3269.12 1730.88 3269.12 1730.88 3269.12 3.63978e+09 0.5
Loop time of 10.3782 on 4 procs for 100000 steps with 900 atoms

unfix 2

fix 3 all nvt temp 370000 370000 $(100.0*dt) #iso 1.0 1.0 $(1000.0*dt)
fix 3 all nvt temp 370000 370000 50

run 200000
Generated 0 of 1 mixed pair_coeff terms from geometric mixing rule
Step          Temp          Press          PotEng        Density         KinEng         TotEng           Lx             Ly             Lz            Xlo            Xhi            Ylo            Yhi            Zlo            Zhi           Volume           Dt            Time           CPU           T/CPU          S/CPU         CPULeft
19005000   360948.54      7.2243281     -28718554       0.17329304     967251.21     -27751303       1538.2436      1538.2436      1538.2436      1730.8782      3269.1218      1730.8782      3269.1218      1730.8782      3269.1218      3.6397821e+09  0.5            9505000        0              0              0              0
Averages over the last 501 of 1001 rows, steps 19105000 to 19205000:
Temp Press PotEng Density KinEng TotEng Lx Ly Lz Xlo Xhi Ylo Yhi Zlo Zhi Volume Dt
370327 9.41287 -2.86382e+07 0.173293 992383 -2.76458e+07 1538.24 1538.24 1538.24 1730.88 3269.12 1730.88 3269.12 1730.88 3269.12 3.63978e+09 0.5
Loop time of 20.5357 on 4 procs for 200000 steps with 900 atoms

unfix 3

fix 4 all nvt temp 370000 300 100.0

run 100000
Generated 0 of 1 mixed pair_coeff terms from geometric mixing rule
Step          Temp          Press          PotEng        Density         KinEng         TotEng           Lx             Ly             Lz            Xlo            Xhi            Ylo            Yhi            Zlo            Zhi           Volume           Dt            Time           CPU           T/CPU          S/CPU         CPULeft
19205000   370527.91      10.297185     -28880636       0.17329304     992921.52     -27887714       1538.2436      1538.2436      1538.2436      1730.8782      3269.1218      1730.8782      3269.1218      1730.8782      3269.1218      3.6397821e+09  0.5            9605000        0              0              0              0
Averages over the last 251 of 501 rows, steps 19255000 to 19305000:
Temp Press PotEng Density KinEng TotEng Lx Ly Lz Xlo Xhi Ylo Yhi Zlo Zhi Volume Dt
93001.6 -1.89362 -2.94438e+07 0.173293 249221 -2.91946e+07 1538.24 1538.24 1538.24 1730.88 3269.12 1730.88 3269.12 1730.88 3269.12 3.63978e+09 0.5
Loop time of 10.2998 on 4 procs for 100000 steps with 900 atoms

unfix 4

fix 5 all npt temp 300 300 $(100.0*dt) iso 1.0 1.0 $(1000.0*dt)
fix 5 all npt temp 300 300 50 iso 1.0 1.0 $(1000.0*dt)
fix 5 all npt temp 300 300 50 iso 1.0 1.0 500

run 300000
Generated 0 of 1 mixed pair_coeff terms from geometric mixing rule
Step          Temp          Press          PotEng        Density         KinEng         TotEng           Lx             Ly             Lz            Xlo            Xhi            Ylo            Yhi            Zlo            Zhi           Volume           Dt            Time           CPU           T/CPU          S/CPU         CPULeft
19305000   1331.7652     -13.818797     -29603251       0.17329304     3568.7954     -29599682       1538.2436      1538.2436      1538.2436      1730.8782      3269.1218      1730.8782      3269.1218      1730.8782      3269.1218      3.6397821e+09  0.5            9655000        0              0              0              0
Averages over the last 751 of 1501 rows, steps 19455000 to 19605000:
Temp Press PotEng Density KinEng TotEng Lx Ly Lz Xlo Xhi Ylo Yhi Zlo Zhi Volume Dt
304.208 0.998432 -2.98167e+07 0.175654 815.2 -2.98159e+07 1531.32 1531.32 1531.32 1734.34 3265.66 1734.34 3265.66 1734.34 3265.66 3.59087e+09 0.5
Loop time of 38.0553 on 4 procs for 300000 steps with 900 atoms

# run_style
run_style verlet

# write restart
write_restart ./pgnpmf/100900/equpmf28.res
System init for write_restart ...
Generated 0 of 1 mixed pair_coeff terms from geometric mixing rule
