LAMMPS (23 Jun 2022 - Update 1)
# Read restart
read_restart ./pgnpmf/73/equpmf26.res
Reading restart file ...
  restart file = 23 Jun 2022, LAMMPS = 23 Jun 2022
  restoring atom style atomic from restart
  orthogonal box = (1604.1494 1604.1494 1604.1494) to (2395.8506 2395.8506 2395.8506)
  restoring pair style table from restart
  1000 atoms
  read_restart CPU = 0.004 seconds

# Settings

pair_style table spline 9941

pair_coeff 1 1 ./pgnpmf/N20.txt DE_GNP 75.6
pair_coeff 2 2 ./pgnpmf/N100.txt DE_GNP 115.92
pair_coeff 1 2 ./pgnpmf/mixed_potential.txt DE_GNP 95.66

#Neigh_list Calc Frequency

neigh_modify delay 0 every 1 check yes

# Saving Frequency (50 frames)

variable ts_save equal 5000

variable nts equal 5000/0.25
variable medium equal 20000*3
variable long equal 20000*5

# Dump
#dump_modify 1 first no sort id
dump 2 all cfg 50000 ./pgnpmf/73/equilibration/trajectory/dumpequ.tens_*.cfg mass type xs ys zs fx fy fz
dump_modify 2 element N20 N100

# thermo_style
thermo_style custom step temp press pe density ke etotal lx ly lz xlo xhi ylo yhi zlo zhi vol dt time cpu tpcpu spcpu cpuremain

# run info
timestep 0.25
thermo 5000

# fix

fix 1 all momentum 1000 linear 1 1 1 angular
variable T equal 300
fix 2 all nvt temp 300 370000 100.0

run 20000
Generated 0 of 1 mixed pair_coeff terms from geometric mixing rule
Unused restart file global fix info:
  fix style: npt, fix ID: 5
  update every 1 steps, delay 0 steps, check yes
Step          Temp          Press          PotEng        Density         KinEng         TotEng           Lx             Ly             Lz            Xlo            Xhi            Ylo            Yhi            Zlo            Zhi           Volume           Dt            Time           CPU           T/CPU          S/CPU         CPULeft
5260000   339.31846      2.3111876     -12737400       0.94335974     1010.4324     -12736390       791.7011       791.7011       791.7011       1604.1494      2395.8506      1604.1494      2395.8506      1604.1494      2395.8506      4.9623083e+08  0.25           1360000        0              0              0              0
Loop time of 1.10263 on 4 procs for 20000 steps with 1000 atoms

unfix 2

fix 3 all nvt temp 370000 370000 $(100.0*dt) #iso 1.0 1.0 $(1000.0*dt)
fix 3 all nvt temp 370000 370000 25

run 100000
Generated 0 of 1 mixed pair_coeff terms from geometric mixing rule
Step          Temp          Press          PotEng        Density         KinEng         TotEng           Lx             Ly             Lz            Xlo            Xhi            Ylo            Yhi            Zlo            Zhi           Volume           Dt            Time           CPU           T/CPU          S/CPU         CPULeft
5280000   366999.77      90.912821     -12701026       0.94335974     1092862.7     -11608163       791.7011       791.7011       791.7011       1604.1494      2395.8506      1604.1494      2395.8506      1604.1494      2395.8506      4.9623083e+08  0.25           1365000        0              0              0              0
Averages over the last 11 of 21 rows, steps 5330000 to 5380000:
Temp Press PotEng Density KinEng TotEng Lx Ly Lz Xlo Xhi Ylo Yhi Zlo Zhi Volume Dt
369533 80.1734 -1.27157e+07 0.94336 1.10041e+06 -1.16153e+07 791.701 791.701 791.701 1604.15 2395.85 1604.15 2395.85 1604.15 2395.85 4.96231e+08 0.25
Loop time of 5.47054 on 4 procs for 100000 steps with 1000 atoms

unfix 3

fix 4 all nvt temp 370000 300 100.0

run 20000
Generated 0 of 1 mixed pair_coeff terms from geometric mixing rule
Step          Temp          Press          PotEng        Density         KinEng         TotEng           Lx             Ly             Lz            Xlo            Xhi            Ylo            Yhi            Zlo            Zhi           Volume           Dt            Time           CPU           T/CPU          S/CPU         CPULeft
5380000   361570.55      21.702555     -12677490       0.94335974     1076695.4     -11600794       791.7011       791.7011       791.7011       1604.1494      2395.8506      1604.1494      2395.8506      1604.1494      2395.8506      4.9623083e+08  0.25           1390000        0              0              0              0
Loop time of 1.06098 on 4 procs for 20000 steps with 1000 atoms

unfix 4

fix 5 all npt temp 300 300 $(100.0*dt) iso 1.0 1.0 $(1000.0*dt)
fix 5 all npt temp 300 300 25 iso 1.0 1.0 $(1000.0*dt)
fix 5 all npt temp 300 300 25 iso 1.0 1.0 250

run 60000
Generated 0 of 1 mixed pair_coeff terms from geometric mixing rule
Step          Temp          Press          PotEng        Density         KinEng         TotEng           Lx             Ly             Lz            Xlo            Xhi            Ylo            Yhi            Zlo            Zhi           Volume           Dt            Time           CPU           T/CPU          S/CPU         CPULeft
5400000   8718.9954     -330.52895     -12883410       0.94335974     25963.679     -12857446       791.7011       791.7011       791.7011       1604.1494      2395.8506      1604.1494      2395.8506      1604.1494      2395.8506      4.9623083e+08  0.25           1395000        0              0              0              0
Averages over the last 7 of 13 rows, steps 5430000 to 5460000:
Temp Press PotEng Density KinEng TotEng Lx Ly Lz Xlo Xhi Ylo Yhi Zlo Zhi Volume Dt
339.703 0.514858 -1.34264e+07 1.0037 1011.58 -1.34254e+07 775.511 775.511 775.511 1612.24 2387.76 1612.24 2387.76 1612.24 2387.76 4.66409e+08 0.25
Loop time of 3.99355 on 4 procs for 60000 steps with 1000 atoms

# run_style
run_style verlet

# write restart
write_restart ./pgnpmf/73/equpmf27.res
System init for write_restart ...
Generated 0 of 1 mixed pair_coeff terms from geometric mixing rule
