LAMMPS (23 Jun 2022 - Update 1)
# Read restart
read_restart ./pgnpmf/73/equpmf57.res
Reading restart file ...
  restart file = 23 Jun 2022, LAMMPS = 23 Jun 2022
  restoring atom style atomic from restart
  orthogonal box = (1696.3878 1696.3878 1696.3878) to (2303.6122 2303.6122 2303.6122)
  restoring pair style table from restart
  1000 atoms
  read_restart CPU = 0.003 seconds

# Settings

pair_style table spline 9941

pair_coeff 1 1 ./pgnpmf/N20.txt DE_GNP 75.6
pair_coeff 2 2 ./pgnpmf/N100.txt DE_GNP 115.92
pair_coeff 1 2 ./pgnpmf/mixed_potential.txt DE_GNP 95.66

#Neigh_list Calc Frequency

neigh_modify delay 0 every 1 check yes

# Saving Frequency (50 frames)

variable ts_save equal 5000

variable nts equal 5000/0.25
variable medium equal 20000*3
variable long equal 20000*5

# Dump
#dump_modify 1 first no sort id
dump 2 all cfg 50000 ./pgnpmf/73/equilibration/trajectory/dumpequ.tens_*.cfg mass type xs ys zs fx fy fz
dump_modify 2 element N20 N100

# thermo_style
thermo_style custom step temp press pe density ke etotal lx ly lz xlo xhi ylo yhi zlo zhi vol dt time cpu tpcpu spcpu cpuremain

# run info
timestep 0.25
thermo 5000

# fix

fix 1 all momentum 1000 linear 1 1 1 angular
variable T equal 300
fix 2 all nvt temp 300 370000 100.0

run 20000
Generated 0 of 1 mixed pair_coeff terms from geometric mixing rule
Unused restart file global fix info:
  fix style: npt, fix ID: 5
  update every 1 steps, delay 0 steps, check yes
Step          Temp          Press          PotEng        Density         KinEng         TotEng           Lx             Ly             Lz            Xlo            Xhi            Ylo            Yhi            Zlo            Zhi           Volume           Dt            Time           CPU           T/CPU          S/CPU         CPULeft
11460000   327.49346      6.1610576     -21104539       2.0908037      975.21959     -21103564       607.22448      607.22448      607.22448      1696.3878      2303.6122      1696.3878      2303.6122      1696.3878      2303.6122      2.2389676e+08  0.25           2910000        0              0              0              0
Loop time of 1.61173 on 4 procs for 20000 steps with 1000 atoms

unfix 2

fix 3 all nvt temp 370000 370000 $(100.0*dt) #iso 1.0 1.0 $(1000.0*dt)
fix 3 all nvt temp 370000 370000 25

run 100000
Generated 0 of 1 mixed pair_coeff terms from geometric mixing rule
Step          Temp          Press          PotEng        Density         KinEng         TotEng           Lx             Ly             Lz            Xlo            Xhi            Ylo            Yhi            Zlo            Zhi           Volume           Dt            Time           CPU           T/CPU          S/CPU         CPULeft
11480000   371705.86      1002.5007     -20857032       2.0908037      1106876.6     -19750156       607.22448      607.22448      607.22448      1696.3878      2303.6122      1696.3878      2303.6122      1696.3878      2303.6122      2.2389676e+08  0.25           2915000        0              0              0              0
Averages over the last 11 of 21 rows, steps 11530000 to 11580000:
Temp Press PotEng Density KinEng TotEng Lx Ly Lz Xlo Xhi Ylo Yhi Zlo Zhi Volume Dt
371957 2182.6 -2.05332e+07 2.0908 1.10763e+06 -1.94256e+07 607.224 607.224 607.224 1696.39 2303.61 1696.39 2303.61 1696.39 2303.61 2.23897e+08 0.25
Loop time of 8.19318 on 4 procs for 100000 steps with 1000 atoms

unfix 3

fix 4 all nvt temp 370000 300 100.0

run 20000
Generated 0 of 1 mixed pair_coeff terms from geometric mixing rule
Step          Temp          Press          PotEng        Density         KinEng         TotEng           Lx             Ly             Lz            Xlo            Xhi            Ylo            Yhi            Zlo            Zhi           Volume           Dt            Time           CPU           T/CPU          S/CPU         CPULeft
11580000   362200.14      2335.5608     -20507979       2.0908037      1078570.2     -19429409       607.22448      607.22448      607.22448      1696.3878      2303.6122      1696.3878      2303.6122      1696.3878      2303.6122      2.2389676e+08  0.25           2940000        0              0              0              0
Loop time of 1.60109 on 4 procs for 20000 steps with 1000 atoms

unfix 4

fix 5 all npt temp 300 300 $(100.0*dt) iso 1.0 1.0 $(1000.0*dt)
fix 5 all npt temp 300 300 25 iso 1.0 1.0 $(1000.0*dt)
fix 5 all npt temp 300 300 25 iso 1.0 1.0 250

run 60000
Generated 0 of 1 mixed pair_coeff terms from geometric mixing rule
Step          Temp          Press          PotEng        Density         KinEng         TotEng           Lx             Ly             Lz            Xlo            Xhi            Ylo            Yhi            Zlo            Zhi           Volume           Dt            Time           CPU           T/CPU          S/CPU         CPULeft
11600000   9622.9345      580.95272     -20978433       2.0908037      28655.456     -20949777       607.22448      607.22448      607.22448      1696.3878      2303.6122      1696.3878      2303.6122      1696.3878      2303.6122      2.2389676e+08  0.25           2945000        0              0              0              0
Averages over the last 7 of 13 rows, steps 11630000 to 11660000:
Temp Press PotEng Density KinEng TotEng Lx Ly Lz Xlo Xhi Ylo Yhi Zlo Zhi Volume Dt
329.961 -0.899128 -2.11164e+07 2.08591 982.567 -2.11154e+07 607.699 607.699 607.699 1696.15 2303.85 1696.15 2303.85 1696.15 2303.85 2.24422e+08 0.25
Loop time of 5.58072 on 4 procs for 60000 steps with 1000 atoms

# run_style
run_style verlet

# write restart
write_restart ./pgnpmf/73/equpmf58.res
System init for write_restart ...
Generated 0 of 1 mixed pair_coeff terms from geometric mixing rule
