LAMMPS (23 Jun 2022 - Update 1)
# Read restart
read_restart ./pgnpmf/73/equpmf37.res
Reading restart file ...
  restart file = 23 Jun 2022, LAMMPS = 23 Jun 2022
  restoring atom style atomic from restart
  orthogonal box = (1680.7077 1680.7077 1680.7077) to (2319.2923 2319.2923 2319.2923)
  restoring pair style table from restart
  1000 atoms
  read_restart CPU = 0.004 seconds

# Settings

pair_style table spline 9941

pair_coeff 1 1 ./pgnpmf/N20.txt DE_GNP 75.6
pair_coeff 2 2 ./pgnpmf/N100.txt DE_GNP 115.92
pair_coeff 1 2 ./pgnpmf/mixed_potential.txt DE_GNP 95.66

#Neigh_list Calc Frequency

neigh_modify delay 0 every 1 check yes

# Saving Frequency (50 frames)

variable ts_save equal 5000

variable nts equal 5000/0.25
variable medium equal 20000*3
variable long equal 20000*5

# Dump
#dump_modify 1 first no sort id
dump 2 all cfg 50000 ./pgnpmf/73/equilibration/trajectory/dumpequ.tens_*.cfg mass type xs ys zs fx fy fz
dump_modify 2 element N20 N100

# thermo_style
thermo_style custom step temp press pe density ke etotal lx ly lz xlo xhi ylo yhi zlo zhi vol dt time cpu tpcpu spcpu cpuremain

# run info
timestep 0.25
thermo 5000

# fix

fix 1 all momentum 1000 linear 1 1 1 angular
variable T equal 300
fix 2 all nvt temp 300 370000 100.0

run 20000
Generated 0 of 1 mixed pair_coeff terms from geometric mixing rule
Unused restart file global fix info:
  fix style: npt, fix ID: 5
  update every 1 steps, delay 0 steps, check yes
Step          Temp          Press          PotEng        Density         KinEng         TotEng           Lx             Ly             Lz            Xlo            Xhi            Ylo            Yhi            Zlo            Zhi           Volume           Dt            Time           CPU           T/CPU          S/CPU         CPULeft
7460000   336.55762      1.422531      -18885141       1.7976526      1002.2111     -18884139       638.58459      638.58459      638.58459      1680.7077      2319.2923      1680.7077      2319.2923      1680.7077      2319.2923      2.6040859e+08  0.25           1910000        0              0              0              0
Loop time of 1.47031 on 4 procs for 20000 steps with 1000 atoms

unfix 2

fix 3 all nvt temp 370000 370000 $(100.0*dt) #iso 1.0 1.0 $(1000.0*dt)
fix 3 all nvt temp 370000 370000 25

run 100000
Generated 0 of 1 mixed pair_coeff terms from geometric mixing rule
Step          Temp          Press          PotEng        Density         KinEng         TotEng           Lx             Ly             Lz            Xlo            Xhi            Ylo            Yhi            Zlo            Zhi           Volume           Dt            Time           CPU           T/CPU          S/CPU         CPULeft
7480000   367606.83      139.99068     -18815684       1.7976526      1094670.4     -17721013       638.58459      638.58459      638.58459      1680.7077      2319.2923      1680.7077      2319.2923      1680.7077      2319.2923      2.6040859e+08  0.25           1915000        0              0              0              0
Averages over the last 11 of 21 rows, steps 7530000 to 7580000:
Temp Press PotEng Density KinEng TotEng Lx Ly Lz Xlo Xhi Ylo Yhi Zlo Zhi Volume Dt
374684 641.845 -1.85647e+07 1.79765 1.11575e+06 -1.74489e+07 638.585 638.585 638.585 1680.71 2319.29 1680.71 2319.29 1680.71 2319.29 2.60409e+08 0.25
Loop time of 7.43749 on 4 procs for 100000 steps with 1000 atoms

unfix 3

fix 4 all nvt temp 370000 300 100.0

run 20000
Generated 0 of 1 mixed pair_coeff terms from geometric mixing rule
Step          Temp          Press          PotEng        Density         KinEng         TotEng           Lx             Ly             Lz            Xlo            Xhi            Ylo            Yhi            Zlo            Zhi           Volume           Dt            Time           CPU           T/CPU          S/CPU         CPULeft
7580000   381969.63      678.37874     -18556229       1.7976526      1137440.3     -17418789       638.58459      638.58459      638.58459      1680.7077      2319.2923      1680.7077      2319.2923      1680.7077      2319.2923      2.6040859e+08  0.25           1940000        0              0              0              0
Loop time of 1.46028 on 4 procs for 20000 steps with 1000 atoms

unfix 4

fix 5 all npt temp 300 300 $(100.0*dt) iso 1.0 1.0 $(1000.0*dt)
fix 5 all npt temp 300 300 25 iso 1.0 1.0 $(1000.0*dt)
fix 5 all npt temp 300 300 25 iso 1.0 1.0 250

run 60000
Generated 0 of 1 mixed pair_coeff terms from geometric mixing rule
Step          Temp          Press          PotEng        Density         KinEng         TotEng           Lx             Ly             Lz            Xlo            Xhi            Ylo            Yhi            Zlo            Zhi           Volume           Dt            Time           CPU           T/CPU          S/CPU         CPULeft
7600000   9187.4805     -527.47245     -18876830       1.7976526      27358.748     -18849471       638.58459      638.58459      638.58459      1680.7077      2319.2923      1680.7077      2319.2923      1680.7077      2319.2923      2.6040859e+08  0.25           1945000        0              0              0              0
Averages over the last 7 of 13 rows, steps 7630000 to 7660000:
Temp Press PotEng Density KinEng TotEng Lx Ly Lz Xlo Xhi Ylo Yhi Zlo Zhi Volume Dt
336.084 3.24694 -1.92444e+07 1.85205 1000.8 -1.92434e+07 632.271 632.271 632.271 1683.86 2316.14 1683.86 2316.14 1683.86 2316.14 2.52762e+08 0.25
Loop time of 5.26684 on 4 procs for 60000 steps with 1000 atoms

# run_style
run_style verlet

# write restart
write_restart ./pgnpmf/73/equpmf38.res
System init for write_restart ...
Generated 0 of 1 mixed pair_coeff terms from geometric mixing rule
