LAMMPS (23 Jun 2022 - Update 1)
# Read restart
read_restart ./pgnpmf/73/equpmf23.res
Reading restart file ...
  restart file = 23 Jun 2022, LAMMPS = 23 Jun 2022
  restoring atom style atomic from restart
  orthogonal box = (1572.398 1572.398 1572.398) to (2427.602 2427.602 2427.602)
  restoring pair style table from restart
  1000 atoms
  read_restart CPU = 0.027 seconds

# Settings

pair_style table spline 9941

pair_coeff 1 1 ./pgnpmf/N20.txt DE_GNP 75.6
pair_coeff 2 2 ./pgnpmf/N100.txt DE_GNP 115.92
pair_coeff 1 2 ./pgnpmf/mixed_potential.txt DE_GNP 95.66

#Neigh_list Calc Frequency

neigh_modify delay 0 every 1 check yes

# Saving Frequency (50 frames)

variable ts_save equal 5000

variable nts equal 5000/0.25
variable medium equal 20000*3
variable long equal 20000*5

# Dump
#dump_modify 1 first no sort id
dump 2 all cfg 50000 ./pgnpmf/73/equilibration/trajectory/dumpequ.tens_*.cfg mass type xs ys zs fx fy fz
dump_modify 2 element N20 N100

# thermo_style
thermo_style custom step temp press pe density ke etotal lx ly lz xlo xhi ylo yhi zlo zhi vol dt time cpu tpcpu spcpu cpuremain

# run info
timestep 0.25
thermo 5000

# fix

fix 1 all momentum 1000 linear 1 1 1 angular
variable T equal 300
fix 2 all nvt temp 300 370000 100.0

run 20000
Generated 0 of 1 mixed pair_coeff terms from geometric mixing rule
Unused restart file global fix info:
  fix style: npt, fix ID: 5
  update every 1 steps, delay 0 steps, check yes
Step          Temp          Press          PotEng        Density         KinEng         TotEng           Lx             Ly             Lz            Xlo            Xhi            Ylo            Yhi            Zlo            Zhi           Volume           Dt            Time           CPU           T/CPU          S/CPU         CPULeft
4660000   338.67976      0.51373966    -9758077.1      0.74843117     1008.5305     -9757068.5      855.20403      855.20403      855.20403      1572.398       2427.602       1572.398       2427.602       1572.398       2427.602       6.2547393e+08  0.25           1210000        0              0              0              0
Loop time of 0.926099 on 4 procs for 20000 steps with 1000 atoms

unfix 2

fix 3 all nvt temp 370000 370000 $(100.0*dt) #iso 1.0 1.0 $(1000.0*dt)
fix 3 all nvt temp 370000 370000 25

run 100000
Generated 0 of 1 mixed pair_coeff terms from geometric mixing rule
Step          Temp          Press          PotEng        Density         KinEng         TotEng           Lx             Ly             Lz            Xlo            Xhi            Ylo            Yhi            Zlo            Zhi           Volume           Dt            Time           CPU           T/CPU          S/CPU         CPULeft
4680000   367442.78      111.4331      -9858184.6      0.74843117     1094181.9     -8764002.7      855.20403      855.20403      855.20403      1572.398       2427.602       1572.398       2427.602       1572.398       2427.602       6.2547393e+08  0.25           1215000        0              0              0              0
Averages over the last 11 of 21 rows, steps 4730000 to 4780000:
Temp Press PotEng Density KinEng TotEng Lx Ly Lz Xlo Xhi Ylo Yhi Zlo Zhi Volume Dt
369800 58.8244 -1.00536e+07 0.748431 1.1012e+06 -8.95239e+06 855.204 855.204 855.204 1572.4 2427.6 1572.4 2427.6 1572.4 2427.6 6.25474e+08 0.25
Loop time of 4.83759 on 4 procs for 100000 steps with 1000 atoms

unfix 3

fix 4 all nvt temp 370000 300 100.0

run 20000
Generated 0 of 1 mixed pair_coeff terms from geometric mixing rule
Step          Temp          Press          PotEng        Density         KinEng         TotEng           Lx             Ly             Lz            Xlo            Xhi            Ylo            Yhi            Zlo            Zhi           Volume           Dt            Time           CPU           T/CPU          S/CPU         CPULeft
4780000   385833.88      48.792651     -10044341       0.74843117     1148947.4     -8895394.1      855.20403      855.20403      855.20403      1572.398       2427.602       1572.398       2427.602       1572.398       2427.602       6.2547393e+08  0.25           1240000        0              0              0              0
Loop time of 0.955735 on 4 procs for 20000 steps with 1000 atoms

unfix 4

fix 5 all npt temp 300 300 $(100.0*dt) iso 1.0 1.0 $(1000.0*dt)
fix 5 all npt temp 300 300 25 iso 1.0 1.0 $(1000.0*dt)
fix 5 all npt temp 300 300 25 iso 1.0 1.0 250

run 60000
Generated 0 of 1 mixed pair_coeff terms from geometric mixing rule
Step          Temp          Press          PotEng        Density         KinEng         TotEng           Lx             Ly             Lz            Xlo            Xhi            Ylo            Yhi            Zlo            Zhi           Volume           Dt            Time           CPU           T/CPU          S/CPU         CPULeft
4800000   8468.6588     -210.39417     -10130861       0.74843117     25218.22      -10105643       855.20403      855.20403      855.20403      1572.398       2427.602       1572.398       2427.602       1572.398       2427.602       6.2547393e+08  0.25           1245000        0              0              0              0
Averages over the last 7 of 13 rows, steps 4830000 to 4860000:
Temp Press PotEng Density KinEng TotEng Lx Ly Lz Xlo Xhi Ylo Yhi Zlo Zhi Volume Dt
338.245 1.47698 -1.07433e+07 0.80282 1007.23 -1.07423e+07 835.444 835.444 835.444 1582.28 2417.72 1582.28 2417.72 1582.28 2417.72 5.83119e+08 0.25
Loop time of 3.64442 on 4 procs for 60000 steps with 1000 atoms

# run_style
run_style verlet

# write restart
write_restart ./pgnpmf/73/equpmf24.res
System init for write_restart ...
Generated 0 of 1 mixed pair_coeff terms from geometric mixing rule
