LAMMPS (23 Jun 2022 - Update 1)
# Read restart
read_restart ./pgnpmf/73/equpmf17.res
Reading restart file ...
  restart file = 23 Jun 2022, LAMMPS = 23 Jun 2022
  restoring atom style atomic from restart
  orthogonal box = (1481.2548 1481.2548 1481.2548) to (2518.7452 2518.7452 2518.7452)
  restoring pair style table from restart
  1000 atoms
  read_restart CPU = 0.003 seconds

# Settings

pair_style table spline 9941

pair_coeff 1 1 ./pgnpmf/N20.txt DE_GNP 75.6
pair_coeff 2 2 ./pgnpmf/N100.txt DE_GNP 115.92
pair_coeff 1 2 ./pgnpmf/mixed_potential.txt DE_GNP 95.66

#Neigh_list Calc Frequency

neigh_modify delay 0 every 1 check yes

# Saving Frequency (50 frames)

variable ts_save equal 5000

variable nts equal 5000/0.25
variable medium equal 20000*3
variable long equal 20000*5

# Dump
#dump_modify 1 first no sort id
dump 2 all cfg 50000 ./pgnpmf/73/equilibration/trajectory/dumpequ.tens_*.cfg mass type xs ys zs fx fy fz
dump_modify 2 element N20 N100

# thermo_style
thermo_style custom step temp press pe density ke etotal lx ly lz xlo xhi ylo yhi zlo zhi vol dt time cpu tpcpu spcpu cpuremain

# run info
timestep 0.25
thermo 5000

# fix

fix 1 all momentum 1000 linear 1 1 1 angular
variable T equal 300
fix 2 all nvt temp 300 370000 100.0

run 20000
Generated 0 of 1 mixed pair_coeff terms from geometric mixing rule
Unused restart file global fix info:
  fix style: npt, fix ID: 5
  update every 1 steps, delay 0 steps, check yes
Step          Temp          Press          PotEng        Density         KinEng         TotEng           Lx             Ly             Lz            Xlo            Xhi            Ylo            Yhi            Zlo            Zhi           Volume           Dt            Time           CPU           T/CPU          S/CPU         CPULeft
3460000   331.28328      1.3208723     -6104156.9      0.41918792     986.50502     -6103170.4      1037.4905      1037.4905      1037.4905      1481.2548      2518.7452      1481.2548      2518.7452      1481.2548      2518.7452      1.1167407e+09  0.25           910000         0              0              0              0
Loop time of 0.710426 on 4 procs for 20000 steps with 1000 atoms

unfix 2

fix 3 all nvt temp 370000 370000 $(100.0*dt) #iso 1.0 1.0 $(1000.0*dt)
fix 3 all nvt temp 370000 370000 25

run 100000
Generated 0 of 1 mixed pair_coeff terms from geometric mixing rule
Step          Temp          Press          PotEng        Density         KinEng         TotEng           Lx             Ly             Lz            Xlo            Xhi            Ylo            Yhi            Zlo            Zhi           Volume           Dt            Time           CPU           T/CPU          S/CPU         CPULeft
3480000   371154.16      77.002879     -6104205.5      0.41918792     1105233.7     -4998971.8      1037.4905      1037.4905      1037.4905      1481.2548      2518.7452      1481.2548      2518.7452      1481.2548      2518.7452      1.1167407e+09  0.25           915000         0              0              0              0
Averages over the last 11 of 21 rows, steps 3530000 to 3580000:
Temp Press PotEng Density KinEng TotEng Lx Ly Lz Xlo Xhi Ylo Yhi Zlo Zhi Volume Dt
370314 40.1127 -6.04348e+06 0.419188 1.10273e+06 -4.94074e+06 1037.49 1037.49 1037.49 1481.25 2518.75 1481.25 2518.75 1481.25 2518.75 1.11674e+09 0.25
Loop time of 3.64983 on 4 procs for 100000 steps with 1000 atoms

unfix 3

fix 4 all nvt temp 370000 300 100.0

run 20000
Generated 0 of 1 mixed pair_coeff terms from geometric mixing rule
Step          Temp          Press          PotEng        Density         KinEng         TotEng           Lx             Ly             Lz            Xlo            Xhi            Ylo            Yhi            Zlo            Zhi           Volume           Dt            Time           CPU           T/CPU          S/CPU         CPULeft
3580000   376445.8       49.173214     -5937790        0.41918792     1120991.3     -4816798.7      1037.4905      1037.4905      1037.4905      1481.2548      2518.7452      1481.2548      2518.7452      1481.2548      2518.7452      1.1167407e+09  0.25           940000         0              0              0              0
Loop time of 0.725418 on 4 procs for 20000 steps with 1000 atoms

unfix 4

fix 5 all npt temp 300 300 $(100.0*dt) iso 1.0 1.0 $(1000.0*dt)
fix 5 all npt temp 300 300 25 iso 1.0 1.0 $(1000.0*dt)
fix 5 all npt temp 300 300 25 iso 1.0 1.0 250

run 60000
Generated 0 of 1 mixed pair_coeff terms from geometric mixing rule
Step          Temp          Press          PotEng        Density         KinEng         TotEng           Lx             Ly             Lz            Xlo            Xhi            Ylo            Yhi            Zlo            Zhi           Volume           Dt            Time           CPU           T/CPU          S/CPU         CPULeft
3600000   8150.8359     -75.837371     -5939032.5      0.41918792     24271.798     -5914760.7      1037.4905      1037.4905      1037.4905      1481.2548      2518.7452      1481.2548      2518.7452      1481.2548      2518.7452      1.1167407e+09  0.25           945000         0              0              0              0
Averages over the last 7 of 13 rows, steps 3630000 to 3660000:
Temp Press PotEng Density KinEng TotEng Lx Ly Lz Xlo Xhi Ylo Yhi Zlo Zhi Volume Dt
334.405 1.22694 -6.50089e+06 0.461363 995.802 -6.4999e+06 1004.88 1004.88 1004.88 1497.56 2502.44 1497.56 2502.44 1497.56 2502.44 1.01473e+09 0.25
Loop time of 2.92144 on 4 procs for 60000 steps with 1000 atoms

# run_style
run_style verlet

# write restart
write_restart ./pgnpmf/73/equpmf18.res
System init for write_restart ...
Generated 0 of 1 mixed pair_coeff terms from geometric mixing rule
