LAMMPS (23 Jun 2022 - Update 1)
# Read restart
read_restart ./pgnpmf/73/equpmf56.res
Reading restart file ...
  restart file = 23 Jun 2022, LAMMPS = 23 Jun 2022
  restoring atom style atomic from restart
  orthogonal box = (1696.1278 1696.1278 1696.1278) to (2303.8722 2303.8722 2303.8722)
  restoring pair style table from restart
  1000 atoms
  read_restart CPU = 0.004 seconds

# Settings

pair_style table spline 9941

pair_coeff 1 1 ./pgnpmf/N20.txt DE_GNP 75.6
pair_coeff 2 2 ./pgnpmf/N100.txt DE_GNP 115.92
pair_coeff 1 2 ./pgnpmf/mixed_potential.txt DE_GNP 95.66

#Neigh_list Calc Frequency

neigh_modify delay 0 every 1 check yes

# Saving Frequency (50 frames)

variable ts_save equal 5000

variable nts equal 5000/0.25
variable medium equal 20000*3
variable long equal 20000*5

# Dump
#dump_modify 1 first no sort id
dump 2 all cfg 50000 ./pgnpmf/73/equilibration/trajectory/dumpequ.tens_*.cfg mass type xs ys zs fx fy fz
dump_modify 2 element N20 N100

# thermo_style
thermo_style custom step temp press pe density ke etotal lx ly lz xlo xhi ylo yhi zlo zhi vol dt time cpu tpcpu spcpu cpuremain

# run info
timestep 0.25
thermo 5000

# fix

fix 1 all momentum 1000 linear 1 1 1 angular
variable T equal 300
fix 2 all nvt temp 300 370000 100.0

run 20000
Generated 0 of 1 mixed pair_coeff terms from geometric mixing rule
Unused restart file global fix info:
  fix style: npt, fix ID: 5
  update every 1 steps, delay 0 steps, check yes
Step          Temp          Press          PotEng        Density         KinEng         TotEng           Lx             Ly             Lz            Xlo            Xhi            Ylo            Yhi            Zlo            Zhi           Volume           Dt            Time           CPU           T/CPU          S/CPU         CPULeft
11260000   327.25259      4.0490497     -21157154       2.0854423      974.50232     -21156179       607.7444       607.7444       607.7444       1696.1278      2303.8722      1696.1278      2303.8722      1696.1278      2303.8722      2.2447238e+08  0.25           2860000        0              0              0              0
Loop time of 1.64331 on 4 procs for 20000 steps with 1000 atoms

unfix 2

fix 3 all nvt temp 370000 370000 $(100.0*dt) #iso 1.0 1.0 $(1000.0*dt)
fix 3 all nvt temp 370000 370000 25

run 100000
Generated 0 of 1 mixed pair_coeff terms from geometric mixing rule
Step          Temp          Press          PotEng        Density         KinEng         TotEng           Lx             Ly             Lz            Xlo            Xhi            Ylo            Yhi            Zlo            Zhi           Volume           Dt            Time           CPU           T/CPU          S/CPU         CPULeft
11280000   372204.91      867.90794     -20840471       2.0854423      1108362.7     -19732109       607.7444       607.7444       607.7444       1696.1278      2303.8722      1696.1278      2303.8722      1696.1278      2303.8722      2.2447238e+08  0.25           2865000        0              0              0              0
Averages over the last 11 of 21 rows, steps 11330000 to 11380000:
Temp Press PotEng Density KinEng TotEng Lx Ly Lz Xlo Xhi Ylo Yhi Zlo Zhi Volume Dt
371437 2128.32 -2.03533e+07 2.08544 1.10608e+06 -1.92473e+07 607.744 607.744 607.744 1696.13 2303.87 1696.13 2303.87 1696.13 2303.87 2.24472e+08 0.25
Loop time of 8.32029 on 4 procs for 100000 steps with 1000 atoms

unfix 3

fix 4 all nvt temp 370000 300 100.0

run 20000
Generated 0 of 1 mixed pair_coeff terms from geometric mixing rule
Step          Temp          Press          PotEng        Density         KinEng         TotEng           Lx             Ly             Lz            Xlo            Xhi            Ylo            Yhi            Zlo            Zhi           Volume           Dt            Time           CPU           T/CPU          S/CPU         CPULeft
11380000   368929.78      2170.0071     -20405322       2.0854423      1098609.9     -19306712       607.7444       607.7444       607.7444       1696.1278      2303.8722      1696.1278      2303.8722      1696.1278      2303.8722      2.2447238e+08  0.25           2890000        0              0              0              0
Loop time of 1.63558 on 4 procs for 20000 steps with 1000 atoms

unfix 4

fix 5 all npt temp 300 300 $(100.0*dt) iso 1.0 1.0 $(1000.0*dt)
fix 5 all npt temp 300 300 25 iso 1.0 1.0 $(1000.0*dt)
fix 5 all npt temp 300 300 25 iso 1.0 1.0 250

run 60000
Generated 0 of 1 mixed pair_coeff terms from geometric mixing rule
Step          Temp          Press          PotEng        Density         KinEng         TotEng           Lx             Ly             Lz            Xlo            Xhi            Ylo            Yhi            Zlo            Zhi           Volume           Dt            Time           CPU           T/CPU          S/CPU         CPULeft
11400000   9685.7582      461.89125     -20890577       2.0854423      28842.534     -20861735       607.7444       607.7444       607.7444       1696.1278      2303.8722      1696.1278      2303.8722      1696.1278      2303.8722      2.2447238e+08  0.25           2895000        0              0              0              0
Averages over the last 7 of 13 rows, steps 11430000 to 11460000:
Temp Press PotEng Density KinEng TotEng Lx Ly Lz Xlo Xhi Ylo Yhi Zlo Zhi Volume Dt
330.012 3.76129 -2.10523e+07 2.0858 982.721 -2.10513e+07 607.71 607.71 607.71 1696.15 2303.85 1696.15 2303.85 1696.15 2303.85 2.24434e+08 0.25
Loop time of 5.68974 on 4 procs for 60000 steps with 1000 atoms

# run_style
run_style verlet

# write restart
write_restart ./pgnpmf/73/equpmf57.res
System init for write_restart ...
Generated 0 of 1 mixed pair_coeff terms from geometric mixing rule
