LAMMPS (23 Jun 2022 - Update 1)
# Read restart
read_restart ./pgnpmf/73/equpmf13.res
Reading restart file ...
  restart file = 23 Jun 2022, LAMMPS = 23 Jun 2022
  restoring atom style atomic from restart
  orthogonal box = (1393.9389 1393.9389 1393.9389) to (2606.0611 2606.0611 2606.0611)
  restoring pair style table from restart
  1000 atoms
  read_restart CPU = 0.004 seconds

# Settings

pair_style table spline 9941

pair_coeff 1 1 ./pgnpmf/N20.txt DE_GNP 75.6
pair_coeff 2 2 ./pgnpmf/N100.txt DE_GNP 115.92
pair_coeff 1 2 ./pgnpmf/mixed_potential.txt DE_GNP 95.66

#Neigh_list Calc Frequency

neigh_modify delay 0 every 1 check yes

# Saving Frequency (50 frames)

variable ts_save equal 5000

variable nts equal 5000/0.25
variable medium equal 20000*3
variable long equal 20000*5

# Dump
#dump_modify 1 first no sort id
dump 2 all cfg 50000 ./pgnpmf/73/equilibration/trajectory/dumpequ.tens_*.cfg mass type xs ys zs fx fy fz
dump_modify 2 element N20 N100

# thermo_style
thermo_style custom step temp press pe density ke etotal lx ly lz xlo xhi ylo yhi zlo zhi vol dt time cpu tpcpu spcpu cpuremain

# run info
timestep 0.25
thermo 5000

# fix

fix 1 all momentum 1000 linear 1 1 1 angular
variable T equal 300
fix 2 all nvt temp 300 370000 100.0

run 20000
Generated 0 of 1 mixed pair_coeff terms from geometric mixing rule
Unused restart file global fix info:
  fix style: npt, fix ID: 5
  update every 1 steps, delay 0 steps, check yes
Step          Temp          Press          PotEng        Density         KinEng         TotEng           Lx             Ly             Lz            Xlo            Xhi            Ylo            Yhi            Zlo            Zhi           Volume           Dt            Time           CPU           T/CPU          S/CPU         CPULeft
2660000   327.05955      1.3096529     -3948720.7      0.26285841     973.92748     -3947746.7      1212.1222      1212.1222      1212.1222      1393.9389      2606.0611      1393.9389      2606.0611      1393.9389      2606.0611      1.7808987e+09  0.25           710000         0              0              0              0
Loop time of 0.63481 on 4 procs for 20000 steps with 1000 atoms

unfix 2

fix 3 all nvt temp 370000 370000 $(100.0*dt) #iso 1.0 1.0 $(1000.0*dt)
fix 3 all nvt temp 370000 370000 25

run 100000
Generated 0 of 1 mixed pair_coeff terms from geometric mixing rule
Step          Temp          Press          PotEng        Density         KinEng         TotEng           Lx             Ly             Lz            Xlo            Xhi            Ylo            Yhi            Zlo            Zhi           Volume           Dt            Time           CPU           T/CPU          S/CPU         CPULeft
2680000   373918.22      65.466798     -3842964.6      0.26285841     1113464.6     -2729500        1212.1222      1212.1222      1212.1222      1393.9389      2606.0611      1393.9389      2606.0611      1393.9389      2606.0611      1.7808987e+09  0.25           715000         0              0              0              0
Averages over the last 11 of 21 rows, steps 2730000 to 2780000:
Temp Press PotEng Density KinEng TotEng Lx Ly Lz Xlo Xhi Ylo Yhi Zlo Zhi Volume Dt
368331 28.2552 -3.80107e+06 0.262858 1.09683e+06 -2.70424e+06 1212.12 1212.12 1212.12 1393.94 2606.06 1393.94 2606.06 1393.94 2606.06 1.7809e+09 0.25
Loop time of 3.17954 on 4 procs for 100000 steps with 1000 atoms

unfix 3

fix 4 all nvt temp 370000 300 100.0

run 20000
Generated 0 of 1 mixed pair_coeff terms from geometric mixing rule
Step          Temp          Press          PotEng        Density         KinEng         TotEng           Lx             Ly             Lz            Xlo            Xhi            Ylo            Yhi            Zlo            Zhi           Volume           Dt            Time           CPU           T/CPU          S/CPU         CPULeft
2780000   363881.24      18.396928     -3839389.4      0.26285841     1083576.2     -2755813.2      1212.1222      1212.1222      1212.1222      1393.9389      2606.0611      1393.9389      2606.0611      1393.9389      2606.0611      1.7808987e+09  0.25           740000         0              0              0              0
Loop time of 0.623248 on 4 procs for 20000 steps with 1000 atoms

unfix 4

fix 5 all npt temp 300 300 $(100.0*dt) iso 1.0 1.0 $(1000.0*dt)
fix 5 all npt temp 300 300 25 iso 1.0 1.0 $(1000.0*dt)
fix 5 all npt temp 300 300 25 iso 1.0 1.0 250

run 60000
Generated 0 of 1 mixed pair_coeff terms from geometric mixing rule
Step          Temp          Press          PotEng        Density         KinEng         TotEng           Lx             Ly             Lz            Xlo            Xhi            Ylo            Yhi            Zlo            Zhi           Volume           Dt            Time           CPU           T/CPU          S/CPU         CPULeft
2800000   8040.3555     -34.341272     -3876301.3      0.26285841     23942.806     -3852358.5      1212.1222      1212.1222      1212.1222      1393.9389      2606.0611      1393.9389      2606.0611      1393.9389      2606.0611      1.7808987e+09  0.25           745000         0              0              0              0
Averages over the last 7 of 13 rows, steps 2830000 to 2860000:
Temp Press PotEng Density KinEng TotEng Lx Ly Lz Xlo Xhi Ylo Yhi Zlo Zhi Volume Dt
328.511 0.891949 -4.35644e+06 0.294471 978.251 -4.35546e+06 1167.13 1167.13 1167.13 1416.44 2583.56 1416.44 2583.56 1416.44 2583.56 1.58991e+09 0.25
Loop time of 2.65344 on 4 procs for 60000 steps with 1000 atoms

# run_style
run_style verlet

# write restart
write_restart ./pgnpmf/73/equpmf14.res
System init for write_restart ...
Generated 0 of 1 mixed pair_coeff terms from geometric mixing rule
