LAMMPS (23 Jun 2022 - Update 1)
# Read restart
read_restart ./pgnpmf/73/equpmf39.res
Reading restart file ...
  restart file = 23 Jun 2022, LAMMPS = 23 Jun 2022
  restoring atom style atomic from restart
  orthogonal box = (1687.7115 1687.7115 1687.7115) to (2312.2885 2312.2885 2312.2885)
  restoring pair style table from restart
  1000 atoms
  read_restart CPU = 0.003 seconds

# Settings

pair_style table spline 9941

pair_coeff 1 1 ./pgnpmf/N20.txt DE_GNP 75.6
pair_coeff 2 2 ./pgnpmf/N100.txt DE_GNP 115.92
pair_coeff 1 2 ./pgnpmf/mixed_potential.txt DE_GNP 95.66

#Neigh_list Calc Frequency

neigh_modify delay 0 every 1 check yes

# Saving Frequency (50 frames)

variable ts_save equal 5000

variable nts equal 5000/0.25
variable medium equal 20000*3
variable long equal 20000*5

# Dump
#dump_modify 1 first no sort id
dump 2 all cfg 50000 ./pgnpmf/73/equilibration/trajectory/dumpequ.tens_*.cfg mass type xs ys zs fx fy fz
dump_modify 2 element N20 N100

# thermo_style
thermo_style custom step temp press pe density ke etotal lx ly lz xlo xhi ylo yhi zlo zhi vol dt time cpu tpcpu spcpu cpuremain

# run info
timestep 0.25
thermo 5000

# fix

fix 1 all momentum 1000 linear 1 1 1 angular
variable T equal 300
fix 2 all nvt temp 300 370000 100.0

run 20000
Generated 0 of 1 mixed pair_coeff terms from geometric mixing rule
Unused restart file global fix info:
  fix style: npt, fix ID: 5
  update every 1 steps, delay 0 steps, check yes
Step          Temp          Press          PotEng        Density         KinEng         TotEng           Lx             Ly             Lz            Xlo            Xhi            Ylo            Yhi            Zlo            Zhi           Volume           Dt            Time           CPU           T/CPU          S/CPU         CPULeft
7860000   335.1248      -2.0727443     -19688818       1.9213359      997.94442     -19687820       624.57691      624.57691      624.57691      1687.7115      2312.2885      1687.7115      2312.2885      1687.7115      2312.2885      2.4364515e+08  0.25           2010000        0              0              0              0
Loop time of 1.52645 on 4 procs for 20000 steps with 1000 atoms

unfix 2

fix 3 all nvt temp 370000 370000 $(100.0*dt) #iso 1.0 1.0 $(1000.0*dt)
fix 3 all nvt temp 370000 370000 25

run 100000
Generated 0 of 1 mixed pair_coeff terms from geometric mixing rule
Step          Temp          Press          PotEng        Density         KinEng         TotEng           Lx             Ly             Lz            Xlo            Xhi            Ylo            Yhi            Zlo            Zhi           Volume           Dt            Time           CPU           T/CPU          S/CPU         CPULeft
7880000   368067.03      378.80255     -19506858       1.9213359      1096040.8     -18410818       624.57691      624.57691      624.57691      1687.7115      2312.2885      1687.7115      2312.2885      1687.7115      2312.2885      2.4364515e+08  0.25           2015000        0              0              0              0
Averages over the last 11 of 21 rows, steps 7930000 to 7980000:
Temp Press PotEng Density KinEng TotEng Lx Ly Lz Xlo Xhi Ylo Yhi Zlo Zhi Volume Dt
370305 974.174 -1.93984e+07 1.92134 1.10271e+06 -1.82957e+07 624.577 624.577 624.577 1687.71 2312.29 1687.71 2312.29 1687.71 2312.29 2.43645e+08 0.25
Loop time of 7.8601 on 4 procs for 100000 steps with 1000 atoms

unfix 3

fix 4 all nvt temp 370000 300 100.0

run 20000
Generated 0 of 1 mixed pair_coeff terms from geometric mixing rule
Step          Temp          Press          PotEng        Density         KinEng         TotEng           Lx             Ly             Lz            Xlo            Xhi            Ylo            Yhi            Zlo            Zhi           Volume           Dt            Time           CPU           T/CPU          S/CPU         CPULeft
7980000   377012.64      1081.1749     -19428442       1.9213359      1122679.3     -18305763       624.57691      624.57691      624.57691      1687.7115      2312.2885      1687.7115      2312.2885      1687.7115      2312.2885      2.4364515e+08  0.25           2040000        0              0              0              0
Loop time of 1.56785 on 4 procs for 20000 steps with 1000 atoms

unfix 4

fix 5 all npt temp 300 300 $(100.0*dt) iso 1.0 1.0 $(1000.0*dt)
fix 5 all npt temp 300 300 25 iso 1.0 1.0 $(1000.0*dt)
fix 5 all npt temp 300 300 25 iso 1.0 1.0 250

run 60000
Generated 0 of 1 mixed pair_coeff terms from geometric mixing rule
Step          Temp          Press          PotEng        Density         KinEng         TotEng           Lx             Ly             Lz            Xlo            Xhi            Ylo            Yhi            Zlo            Zhi           Volume           Dt            Time           CPU           T/CPU          S/CPU         CPULeft
8000000   9365.182      -363.45821     -19824656       1.9213359      27887.913     -19796768       624.57691      624.57691      624.57691      1687.7115      2312.2885      1687.7115      2312.2885      1687.7115      2312.2885      2.4364515e+08  0.25           2045000        0              0              0              0
Averages over the last 7 of 13 rows, steps 8030000 to 8060000:
Temp Press PotEng Density KinEng TotEng Lx Ly Lz Xlo Xhi Ylo Yhi Zlo Zhi Volume Dt
334.537 -1.28361 -2.00907e+07 1.96304 996.193 -2.00897e+07 620.123 620.123 620.123 1689.94 2310.06 1689.94 2310.06 1689.94 2310.06 2.3847e+08 0.25
Loop time of 5.52574 on 4 procs for 60000 steps with 1000 atoms

# run_style
run_style verlet

# write restart
write_restart ./pgnpmf/73/equpmf40.res
System init for write_restart ...
Generated 0 of 1 mixed pair_coeff terms from geometric mixing rule
