LAMMPS (23 Jun 2022 - Update 1)
# Read restart
read_restart ./pgnpmf/73/equpmf35.res
Reading restart file ...
  restart file = 23 Jun 2022, LAMMPS = 23 Jun 2022
  restoring atom style atomic from restart
  orthogonal box = (1671.4773 1671.4773 1671.4773) to (2328.5227 2328.5227 2328.5227)
  restoring pair style table from restart
  1000 atoms
  read_restart CPU = 0.003 seconds

# Settings

pair_style table spline 9941

pair_coeff 1 1 ./pgnpmf/N20.txt DE_GNP 75.6
pair_coeff 2 2 ./pgnpmf/N100.txt DE_GNP 115.92
pair_coeff 1 2 ./pgnpmf/mixed_potential.txt DE_GNP 95.66

#Neigh_list Calc Frequency

neigh_modify delay 0 every 1 check yes

# Saving Frequency (50 frames)

variable ts_save equal 5000

variable nts equal 5000/0.25
variable medium equal 20000*3
variable long equal 20000*5

# Dump
#dump_modify 1 first no sort id
dump 2 all cfg 50000 ./pgnpmf/73/equilibration/trajectory/dumpequ.tens_*.cfg mass type xs ys zs fx fy fz
dump_modify 2 element N20 N100

# thermo_style
thermo_style custom step temp press pe density ke etotal lx ly lz xlo xhi ylo yhi zlo zhi vol dt time cpu tpcpu spcpu cpuremain

# run info
timestep 0.25
thermo 5000

# fix

fix 1 all momentum 1000 linear 1 1 1 angular
variable T equal 300
fix 2 all nvt temp 300 370000 100.0

run 20000
Generated 0 of 1 mixed pair_coeff terms from geometric mixing rule
Unused restart file global fix info:
  fix style: npt, fix ID: 5
  update every 1 steps, delay 0 steps, check yes
Step          Temp          Press          PotEng        Density         KinEng         TotEng           Lx             Ly             Lz            Xlo            Xhi            Ylo            Yhi            Zlo            Zhi           Volume           Dt            Time           CPU           T/CPU          S/CPU         CPULeft
7060000   337.75982     -2.5391772     -17972930       1.6503464      1005.7911     -17971924       657.04532      657.04532      657.04532      1671.4773      2328.5227      1671.4773      2328.5227      1671.4773      2328.5227      2.8365209e+08  0.25           1810000        0              0              0              0
Loop time of 1.41289 on 4 procs for 20000 steps with 1000 atoms

unfix 2

fix 3 all nvt temp 370000 370000 $(100.0*dt) #iso 1.0 1.0 $(1000.0*dt)
fix 3 all nvt temp 370000 370000 25

run 100000
Generated 0 of 1 mixed pair_coeff terms from geometric mixing rule
Step          Temp          Press          PotEng        Density         KinEng         TotEng           Lx             Ly             Lz            Xlo            Xhi            Ylo            Yhi            Zlo            Zhi           Volume           Dt            Time           CPU           T/CPU          S/CPU         CPULeft
7080000   367237.95      147.18488     -17885752       1.6503464      1093571.9     -16792180       657.04532      657.04532      657.04532      1671.4773      2328.5227      1671.4773      2328.5227      1671.4773      2328.5227      2.8365209e+08  0.25           1815000        0              0              0              0
Averages over the last 11 of 21 rows, steps 7130000 to 7180000:
Temp Press PotEng Density KinEng TotEng Lx Ly Lz Xlo Xhi Ylo Yhi Zlo Zhi Volume Dt
368548 371.751 -1.76419e+07 1.65035 1.09747e+06 -1.65445e+07 657.045 657.045 657.045 1671.48 2328.52 1671.48 2328.52 1671.48 2328.52 2.83652e+08 0.25
Loop time of 7.2679 on 4 procs for 100000 steps with 1000 atoms

unfix 3

fix 4 all nvt temp 370000 300 100.0

run 20000
Generated 0 of 1 mixed pair_coeff terms from geometric mixing rule
Step          Temp          Press          PotEng        Density         KinEng         TotEng           Lx             Ly             Lz            Xlo            Xhi            Ylo            Yhi            Zlo            Zhi           Volume           Dt            Time           CPU           T/CPU          S/CPU         CPULeft
7180000   375328.57      314.14418     -17608095       1.6503464      1117664.4     -16490431       657.04532      657.04532      657.04532      1671.4773      2328.5227      1671.4773      2328.5227      1671.4773      2328.5227      2.8365209e+08  0.25           1840000        0              0              0              0
Loop time of 1.45584 on 4 procs for 20000 steps with 1000 atoms

unfix 4

fix 5 all npt temp 300 300 $(100.0*dt) iso 1.0 1.0 $(1000.0*dt)
fix 5 all npt temp 300 300 25 iso 1.0 1.0 $(1000.0*dt)
fix 5 all npt temp 300 300 25 iso 1.0 1.0 250

run 60000
Generated 0 of 1 mixed pair_coeff terms from geometric mixing rule
Step          Temp          Press          PotEng        Density         KinEng         TotEng           Lx             Ly             Lz            Xlo            Xhi            Ylo            Yhi            Zlo            Zhi           Volume           Dt            Time           CPU           T/CPU          S/CPU         CPULeft
7200000   9102.9685     -579.07611     -17883101       1.6503464      27107.086     -17855994       657.04532      657.04532      657.04532      1671.4773      2328.5227      1671.4773      2328.5227      1671.4773      2328.5227      2.8365209e+08  0.25           1845000        0              0              0              0
Averages over the last 7 of 13 rows, steps 7230000 to 7260000:
Temp Press PotEng Density KinEng TotEng Lx Ly Lz Xlo Xhi Ylo Yhi Zlo Zhi Volume Dt
338.565 0.739131 -1.83151e+07 1.71343 1008.19 -1.83141e+07 648.882 648.882 648.882 1675.56 2324.44 1675.56 2324.44 1675.56 2324.44 2.73211e+08 0.25
Loop time of 5.17696 on 4 procs for 60000 steps with 1000 atoms

# run_style
run_style verlet

# write restart
write_restart ./pgnpmf/73/equpmf36.res
System init for write_restart ...
Generated 0 of 1 mixed pair_coeff terms from geometric mixing rule
