LAMMPS (23 Jun 2022 - Update 1)
# Read restart
read_restart ./pgnpmf/73/equpmf31.res
Reading restart file ...
  restart file = 23 Jun 2022, LAMMPS = 23 Jun 2022
  restoring atom style atomic from restart
  orthogonal box = (1645.3224 1645.3224 1645.3224) to (2354.6776 2354.6776 2354.6776)
  restoring pair style table from restart
  1000 atoms
  read_restart CPU = 0.003 seconds

# Settings

pair_style table spline 9941

pair_coeff 1 1 ./pgnpmf/N20.txt DE_GNP 75.6
pair_coeff 2 2 ./pgnpmf/N100.txt DE_GNP 115.92
pair_coeff 1 2 ./pgnpmf/mixed_potential.txt DE_GNP 95.66

#Neigh_list Calc Frequency

neigh_modify delay 0 every 1 check yes

# Saving Frequency (50 frames)

variable ts_save equal 5000

variable nts equal 5000/0.25
variable medium equal 20000*3
variable long equal 20000*5

# Dump
#dump_modify 1 first no sort id
dump 2 all cfg 50000 ./pgnpmf/73/equilibration/trajectory/dumpequ.tens_*.cfg mass type xs ys zs fx fy fz
dump_modify 2 element N20 N100

# thermo_style
thermo_style custom step temp press pe density ke etotal lx ly lz xlo xhi ylo yhi zlo zhi vol dt time cpu tpcpu spcpu cpuremain

# run info
timestep 0.25
thermo 5000

# fix

fix 1 all momentum 1000 linear 1 1 1 angular
variable T equal 300
fix 2 all nvt temp 300 370000 100.0

run 20000
Generated 0 of 1 mixed pair_coeff terms from geometric mixing rule
Unused restart file global fix info:
  fix style: npt, fix ID: 5
  update every 1 steps, delay 0 steps, check yes
Step          Temp          Press          PotEng        Density         KinEng         TotEng           Lx             Ly             Lz            Xlo            Xhi            Ylo            Yhi            Zlo            Zhi           Volume           Dt            Time           CPU           T/CPU          S/CPU         CPULeft
6260000   338.72078     -0.55887029    -16041064       1.3115041      1008.6526     -16040056       709.35529      709.35529      709.35529      1645.3224      2354.6776      1645.3224      2354.6776      1645.3224      2354.6776      3.569369e+08   0.25           1610000        0              0              0              0
Loop time of 1.27147 on 4 procs for 20000 steps with 1000 atoms

unfix 2

fix 3 all nvt temp 370000 370000 $(100.0*dt) #iso 1.0 1.0 $(1000.0*dt)
fix 3 all nvt temp 370000 370000 25

run 100000
Generated 0 of 1 mixed pair_coeff terms from geometric mixing rule
Step          Temp          Press          PotEng        Density         KinEng         TotEng           Lx             Ly             Lz            Xlo            Xhi            Ylo            Yhi            Zlo            Zhi           Volume           Dt            Time           CPU           T/CPU          S/CPU         CPULeft
6280000   366905.61      63.331193     -15986458       1.3115041      1092582.2     -14893876       709.35529      709.35529      709.35529      1645.3224      2354.6776      1645.3224      2354.6776      1645.3224      2354.6776      3.569369e+08   0.25           1615000        0              0              0              0
Averages over the last 11 of 21 rows, steps 6330000 to 6380000:
Temp Press PotEng Density KinEng TotEng Lx Ly Lz Xlo Xhi Ylo Yhi Zlo Zhi Volume Dt
373100 129.046 -1.57819e+07 1.3115 1.11103e+06 -1.46709e+07 709.355 709.355 709.355 1645.32 2354.68 1645.32 2354.68 1645.32 2354.68 3.56937e+08 0.25
Loop time of 6.35688 on 4 procs for 100000 steps with 1000 atoms

unfix 3

fix 4 all nvt temp 370000 300 100.0

run 20000
Generated 0 of 1 mixed pair_coeff terms from geometric mixing rule
Step          Temp          Press          PotEng        Density         KinEng         TotEng           Lx             Ly             Lz            Xlo            Xhi            Ylo            Yhi            Zlo            Zhi           Volume           Dt            Time           CPU           T/CPU          S/CPU         CPULeft
6380000   383842.73      147.5633      -15643081       1.3115041      1143018.1     -14500063       709.35529      709.35529      709.35529      1645.3224      2354.6776      1645.3224      2354.6776      1645.3224      2354.6776      3.569369e+08   0.25           1640000        0              0              0              0
Loop time of 1.25523 on 4 procs for 20000 steps with 1000 atoms

unfix 4

fix 5 all npt temp 300 300 $(100.0*dt) iso 1.0 1.0 $(1000.0*dt)
fix 5 all npt temp 300 300 25 iso 1.0 1.0 $(1000.0*dt)
fix 5 all npt temp 300 300 25 iso 1.0 1.0 250

run 60000
Generated 0 of 1 mixed pair_coeff terms from geometric mixing rule
Step          Temp          Press          PotEng        Density         KinEng         TotEng           Lx             Ly             Lz            Xlo            Xhi            Ylo            Yhi            Zlo            Zhi           Volume           Dt            Time           CPU           T/CPU          S/CPU         CPULeft
6400000   8705.1687     -614.03296     -15852611       1.3115041      25922.506     -15826688       709.35529      709.35529      709.35529      1645.3224      2354.6776      1645.3224      2354.6776      1645.3224      2354.6776      3.569369e+08   0.25           1645000        0              0              0              0
Averages over the last 7 of 13 rows, steps 6430000 to 6460000:
Temp Press PotEng Density KinEng TotEng Lx Ly Lz Xlo Xhi Ylo Yhi Zlo Zhi Volume Dt
341.156 0.125681 -1.64462e+07 1.38971 1015.91 -1.64452e+07 695.793 695.793 695.793 1652.1 2347.9 1652.1 2347.9 1652.1 2347.9 3.36855e+08 0.25
Loop time of 4.60452 on 4 procs for 60000 steps with 1000 atoms

# run_style
run_style verlet

# write restart
write_restart ./pgnpmf/73/equpmf32.res
System init for write_restart ...
Generated 0 of 1 mixed pair_coeff terms from geometric mixing rule
