LAMMPS (23 Jun 2022 - Update 1)
# Read restart
read_restart ./pgnpmf/73/equpmf16.res
Reading restart file ...
  restart file = 23 Jun 2022, LAMMPS = 23 Jun 2022
  restoring atom style atomic from restart
  orthogonal box = (1462.729 1462.729 1462.729) to (2537.271 2537.271 2537.271)
  restoring pair style table from restart
  1000 atoms
  read_restart CPU = 0.004 seconds

# Settings

pair_style table spline 9941

pair_coeff 1 1 ./pgnpmf/N20.txt DE_GNP 75.6
pair_coeff 2 2 ./pgnpmf/N100.txt DE_GNP 115.92
pair_coeff 1 2 ./pgnpmf/mixed_potential.txt DE_GNP 95.66

#Neigh_list Calc Frequency

neigh_modify delay 0 every 1 check yes

# Saving Frequency (50 frames)

variable ts_save equal 5000

variable nts equal 5000/0.25
variable medium equal 20000*3
variable long equal 20000*5

# Dump
#dump_modify 1 first no sort id
dump 2 all cfg 50000 ./pgnpmf/73/equilibration/trajectory/dumpequ.tens_*.cfg mass type xs ys zs fx fy fz
dump_modify 2 element N20 N100

# thermo_style
thermo_style custom step temp press pe density ke etotal lx ly lz xlo xhi ylo yhi zlo zhi vol dt time cpu tpcpu spcpu cpuremain

# run info
timestep 0.25
thermo 5000

# fix

fix 1 all momentum 1000 linear 1 1 1 angular
variable T equal 300
fix 2 all nvt temp 300 370000 100.0

run 20000
Generated 0 of 1 mixed pair_coeff terms from geometric mixing rule
Unused restart file global fix info:
  fix style: npt, fix ID: 5
  update every 1 steps, delay 0 steps, check yes
Step          Temp          Press          PotEng        Density         KinEng         TotEng           Lx             Ly             Lz            Xlo            Xhi            Ylo            Yhi            Zlo            Zhi           Volume           Dt            Time           CPU           T/CPU          S/CPU         CPULeft
3260000   328.99968      1.1976522     -5505037.8      0.3773036      979.70486     -5504058.1      1074.542       1074.542       1074.542       1462.729       2537.271       1462.729       2537.271       1462.729       2537.271       1.2407096e+09  0.25           860000         0              0              0              0
Loop time of 0.701255 on 4 procs for 20000 steps with 1000 atoms

unfix 2

fix 3 all nvt temp 370000 370000 $(100.0*dt) #iso 1.0 1.0 $(1000.0*dt)
fix 3 all nvt temp 370000 370000 25

run 100000
Generated 0 of 1 mixed pair_coeff terms from geometric mixing rule
Step          Temp          Press          PotEng        Density         KinEng         TotEng           Lx             Ly             Lz            Xlo            Xhi            Ylo            Yhi            Zlo            Zhi           Volume           Dt            Time           CPU           T/CPU          S/CPU         CPULeft
3280000   372757.67      53.892768     -5551670.3      0.3773036      1110008.7     -4441661.7      1074.542       1074.542       1074.542       1462.729       2537.271       1462.729       2537.271       1462.729       2537.271       1.2407096e+09  0.25           865000         0              0              0              0
Averages over the last 11 of 21 rows, steps 3330000 to 3380000:
Temp Press PotEng Density KinEng TotEng Lx Ly Lz Xlo Xhi Ylo Yhi Zlo Zhi Volume Dt
370752 36.7691 -5.40835e+06 0.377304 1.10404e+06 -4.30431e+06 1074.54 1074.54 1074.54 1462.73 2537.27 1462.73 2537.27 1462.73 2537.27 1.24071e+09 0.25
Loop time of 3.51548 on 4 procs for 100000 steps with 1000 atoms

unfix 3

fix 4 all nvt temp 370000 300 100.0

run 20000
Generated 0 of 1 mixed pair_coeff terms from geometric mixing rule
Step          Temp          Press          PotEng        Density         KinEng         TotEng           Lx             Ly             Lz            Xlo            Xhi            Ylo            Yhi            Zlo            Zhi           Volume           Dt            Time           CPU           T/CPU          S/CPU         CPULeft
3380000   365076.24      34.997377     -5467309.4      0.3773036      1087134.7     -4380174.7      1074.542       1074.542       1074.542       1462.729       2537.271       1462.729       2537.271       1462.729       2537.271       1.2407096e+09  0.25           890000         0              0              0              0
Loop time of 0.689585 on 4 procs for 20000 steps with 1000 atoms

unfix 4

fix 5 all npt temp 300 300 $(100.0*dt) iso 1.0 1.0 $(1000.0*dt)
fix 5 all npt temp 300 300 25 iso 1.0 1.0 $(1000.0*dt)
fix 5 all npt temp 300 300 25 iso 1.0 1.0 250

run 60000
Generated 0 of 1 mixed pair_coeff terms from geometric mixing rule
Step          Temp          Press          PotEng        Density         KinEng         TotEng           Lx             Ly             Lz            Xlo            Xhi            Ylo            Yhi            Zlo            Zhi           Volume           Dt            Time           CPU           T/CPU          S/CPU         CPULeft
3400000   8239.3749     -55.991968     -5530583        0.3773036      24535.452     -5506047.5      1074.542       1074.542       1074.542       1462.729       2537.271       1462.729       2537.271       1462.729       2537.271       1.2407096e+09  0.25           895000         0              0              0              0
Averages over the last 7 of 13 rows, steps 3430000 to 3460000:
Temp Press PotEng Density KinEng TotEng Lx Ly Lz Xlo Xhi Ylo Yhi Zlo Zhi Volume Dt
332.759 1.17155 -5.9993e+06 0.413392 990.899 -5.99831e+06 1042.34 1042.34 1042.34 1478.83 2521.17 1478.83 2521.17 1478.83 2521.17 1.1325e+09 0.25
Loop time of 2.82769 on 4 procs for 60000 steps with 1000 atoms

# run_style
run_style verlet

# write restart
write_restart ./pgnpmf/73/equpmf17.res
System init for write_restart ...
Generated 0 of 1 mixed pair_coeff terms from geometric mixing rule
