LAMMPS (23 Jun 2022 - Update 1)
# Read restart
read_restart ./pgnpmf/73/equpmf20.res
Reading restart file ...
  restart file = 23 Jun 2022, LAMMPS = 23 Jun 2022
  restoring atom style atomic from restart
  orthogonal box = (1531.8452 1531.8452 1531.8452) to (2468.1548 2468.1548 2468.1548)
  restoring pair style table from restart
  1000 atoms
  read_restart CPU = 0.004 seconds

# Settings

pair_style table spline 9941

pair_coeff 1 1 ./pgnpmf/N20.txt DE_GNP 75.6
pair_coeff 2 2 ./pgnpmf/N100.txt DE_GNP 115.92
pair_coeff 1 2 ./pgnpmf/mixed_potential.txt DE_GNP 95.66

#Neigh_list Calc Frequency

neigh_modify delay 0 every 1 check yes

# Saving Frequency (50 frames)

variable ts_save equal 5000

variable nts equal 5000/0.25
variable medium equal 20000*3
variable long equal 20000*5

# Dump
#dump_modify 1 first no sort id
dump 2 all cfg 50000 ./pgnpmf/73/equilibration/trajectory/dumpequ.tens_*.cfg mass type xs ys zs fx fy fz
dump_modify 2 element N20 N100

# thermo_style
thermo_style custom step temp press pe density ke etotal lx ly lz xlo xhi ylo yhi zlo zhi vol dt time cpu tpcpu spcpu cpuremain

# run info
timestep 0.25
thermo 5000

# fix

fix 1 all momentum 1000 linear 1 1 1 angular
variable T equal 300
fix 2 all nvt temp 300 370000 100.0

run 20000
Generated 0 of 1 mixed pair_coeff terms from geometric mixing rule
Unused restart file global fix info:
  fix style: npt, fix ID: 5
  update every 1 steps, delay 0 steps, check yes
Step          Temp          Press          PotEng        Density         KinEng         TotEng           Lx             Ly             Lz            Xlo            Xhi            Ylo            Yhi            Zlo            Zhi           Volume           Dt            Time           CPU           T/CPU          S/CPU         CPULeft
4060000   334.49144      1.0108571     -7798459.5      0.5702992      996.0584      -7797463.5      936.30952      936.30952      936.30952      1531.8452      2468.1548      1531.8452      2468.1548      1531.8452      2468.1548      8.2083964e+08  0.25           1060000        0              0              0              0
Loop time of 0.809689 on 4 procs for 20000 steps with 1000 atoms

unfix 2

fix 3 all nvt temp 370000 370000 $(100.0*dt) #iso 1.0 1.0 $(1000.0*dt)
fix 3 all nvt temp 370000 370000 25

run 100000
Generated 0 of 1 mixed pair_coeff terms from geometric mixing rule
Step          Temp          Press          PotEng        Density         KinEng         TotEng           Lx             Ly             Lz            Xlo            Xhi            Ylo            Yhi            Zlo            Zhi           Volume           Dt            Time           CPU           T/CPU          S/CPU         CPULeft
4080000   369036.83      83.157743     -7786048.3      0.5702992      1098928.7     -6687119.6      936.30952      936.30952      936.30952      1531.8452      2468.1548      1531.8452      2468.1548      1531.8452      2468.1548      8.2083964e+08  0.25           1065000        0              0              0              0
Averages over the last 11 of 21 rows, steps 4130000 to 4180000:
Temp Press PotEng Density KinEng TotEng Lx Ly Lz Xlo Xhi Ylo Yhi Zlo Zhi Volume Dt
373190 62.3878 -7.72901e+06 0.570299 1.11129e+06 -6.61772e+06 936.31 936.31 936.31 1531.85 2468.15 1531.85 2468.15 1531.85 2468.15 8.2084e+08 0.25
Loop time of 4.13128 on 4 procs for 100000 steps with 1000 atoms

unfix 3

fix 4 all nvt temp 370000 300 100.0

run 20000
Generated 0 of 1 mixed pair_coeff terms from geometric mixing rule
Step          Temp          Press          PotEng        Density         KinEng         TotEng           Lx             Ly             Lz            Xlo            Xhi            Ylo            Yhi            Zlo            Zhi           Volume           Dt            Time           CPU           T/CPU          S/CPU         CPULeft
4180000   356112.4       32.408332     -7571994.3      0.5702992      1060441.9     -6511552.4      936.30952      936.30952      936.30952      1531.8452      2468.1548      1531.8452      2468.1548      1531.8452      2468.1548      8.2083964e+08  0.25           1090000        0              0              0              0
Loop time of 0.812137 on 4 procs for 20000 steps with 1000 atoms

unfix 4

fix 5 all npt temp 300 300 $(100.0*dt) iso 1.0 1.0 $(1000.0*dt)
fix 5 all npt temp 300 300 25 iso 1.0 1.0 $(1000.0*dt)
fix 5 all npt temp 300 300 25 iso 1.0 1.0 250

run 60000
Generated 0 of 1 mixed pair_coeff terms from geometric mixing rule
Step          Temp          Press          PotEng        Density         KinEng         TotEng           Lx             Ly             Lz            Xlo            Xhi            Ylo            Yhi            Zlo            Zhi           Volume           Dt            Time           CPU           T/CPU          S/CPU         CPULeft
4200000   8319.8328     -120.05376     -7795048.3      0.5702992      24775.041     -7770273.3      936.30952      936.30952      936.30952      1531.8452      2468.1548      1531.8452      2468.1548      1531.8452      2468.1548      8.2083964e+08  0.25           1095000        0              0              0              0
Averages over the last 7 of 13 rows, steps 4230000 to 4260000:
Temp Press PotEng Density KinEng TotEng Lx Ly Lz Xlo Xhi Ylo Yhi Zlo Zhi Volume Dt
335.931 1.07198 -8.31519e+06 0.616768 1000.34 -8.31418e+06 912.189 912.189 912.189 1543.91 2456.09 1543.91 2456.09 1543.91 2456.09 7.59035e+08 0.25
Loop time of 3.2863 on 4 procs for 60000 steps with 1000 atoms

# run_style
run_style verlet

# write restart
write_restart ./pgnpmf/73/equpmf21.res
System init for write_restart ...
Generated 0 of 1 mixed pair_coeff terms from geometric mixing rule
