LAMMPS (23 Jun 2022 - Update 1)
# Read restart
read_restart ./pgnpmf/73/equpmf32.res
Reading restart file ...
  restart file = 23 Jun 2022, LAMMPS = 23 Jun 2022
  restoring atom style atomic from restart
  orthogonal box = (1652.7574 1652.7574 1652.7574) to (2347.2426 2347.2426 2347.2426)
  restoring pair style table from restart
  1000 atoms
  read_restart CPU = 0.003 seconds

# Settings

pair_style table spline 9941

pair_coeff 1 1 ./pgnpmf/N20.txt DE_GNP 75.6
pair_coeff 2 2 ./pgnpmf/N100.txt DE_GNP 115.92
pair_coeff 1 2 ./pgnpmf/mixed_potential.txt DE_GNP 95.66

#Neigh_list Calc Frequency

neigh_modify delay 0 every 1 check yes

# Saving Frequency (50 frames)

variable ts_save equal 5000

variable nts equal 5000/0.25
variable medium equal 20000*3
variable long equal 20000*5

# Dump
#dump_modify 1 first no sort id
dump 2 all cfg 50000 ./pgnpmf/73/equilibration/trajectory/dumpequ.tens_*.cfg mass type xs ys zs fx fy fz
dump_modify 2 element N20 N100

# thermo_style
thermo_style custom step temp press pe density ke etotal lx ly lz xlo xhi ylo yhi zlo zhi vol dt time cpu tpcpu spcpu cpuremain

# run info
timestep 0.25
thermo 5000

# fix

fix 1 all momentum 1000 linear 1 1 1 angular
variable T equal 300
fix 2 all nvt temp 300 370000 100.0

run 20000
Generated 0 of 1 mixed pair_coeff terms from geometric mixing rule
Unused restart file global fix info:
  fix style: npt, fix ID: 5
  update every 1 steps, delay 0 steps, check yes
Step          Temp          Press          PotEng        Density         KinEng         TotEng           Lx             Ly             Lz            Xlo            Xhi            Ylo            Yhi            Zlo            Zhi           Volume           Dt            Time           CPU           T/CPU          S/CPU         CPULeft
6460000   339.54149      0.98702422    -16519386       1.3975648      1011.0966     -16518375       694.48528      694.48528      694.48528      1652.7574      2347.2426      1652.7574      2347.2426      1652.7574      2347.2426      3.3495706e+08  0.25           1660000        0              0              0              0
Loop time of 1.29959 on 4 procs for 20000 steps with 1000 atoms

unfix 2

fix 3 all nvt temp 370000 370000 $(100.0*dt) #iso 1.0 1.0 $(1000.0*dt)
fix 3 all nvt temp 370000 370000 25

run 100000
Generated 0 of 1 mixed pair_coeff terms from geometric mixing rule
Step          Temp          Press          PotEng        Density         KinEng         TotEng           Lx             Ly             Lz            Xlo            Xhi            Ylo            Yhi            Zlo            Zhi           Volume           Dt            Time           CPU           T/CPU          S/CPU         CPULeft
6480000   366498.88      12.245341     -16539247       1.3975648      1091371.1     -15447876       694.48528      694.48528      694.48528      1652.7574      2347.2426      1652.7574      2347.2426      1652.7574      2347.2426      3.3495706e+08  0.25           1665000        0              0              0              0
Averages over the last 11 of 21 rows, steps 6530000 to 6580000:
Temp Press PotEng Density KinEng TotEng Lx Ly Lz Xlo Xhi Ylo Yhi Zlo Zhi Volume Dt
367861 174.037 -1.62323e+07 1.39756 1.09543e+06 -1.51368e+07 694.485 694.485 694.485 1652.76 2347.24 1652.76 2347.24 1652.76 2347.24 3.34957e+08 0.25
Loop time of 6.66941 on 4 procs for 100000 steps with 1000 atoms

unfix 3

fix 4 all nvt temp 370000 300 100.0

run 20000
Generated 0 of 1 mixed pair_coeff terms from geometric mixing rule
Step          Temp          Press          PotEng        Density         KinEng         TotEng           Lx             Ly             Lz            Xlo            Xhi            Ylo            Yhi            Zlo            Zhi           Volume           Dt            Time           CPU           T/CPU          S/CPU         CPULeft
6580000   355090.26      34.554966     -16087511       1.3975648      1057398.2     -15030113       694.48528      694.48528      694.48528      1652.7574      2347.2426      1652.7574      2347.2426      1652.7574      2347.2426      3.3495706e+08  0.25           1690000        0              0              0              0
Loop time of 1.33534 on 4 procs for 20000 steps with 1000 atoms

unfix 4

fix 5 all npt temp 300 300 $(100.0*dt) iso 1.0 1.0 $(1000.0*dt)
fix 5 all npt temp 300 300 25 iso 1.0 1.0 $(1000.0*dt)
fix 5 all npt temp 300 300 25 iso 1.0 1.0 250

run 60000
Generated 0 of 1 mixed pair_coeff terms from geometric mixing rule
Step          Temp          Press          PotEng        Density         KinEng         TotEng           Lx             Ly             Lz            Xlo            Xhi            Ylo            Yhi            Zlo            Zhi           Volume           Dt            Time           CPU           T/CPU          S/CPU         CPULeft
6600000   8852.3624     -640.99896     -16213691       1.3975648      26360.824     -16187330       694.48528      694.48528      694.48528      1652.7574      2347.2426      1652.7574      2347.2426      1652.7574      2347.2426      3.3495706e+08  0.25           1695000        0              0              0              0
Averages over the last 7 of 13 rows, steps 6630000 to 6660000:
Temp Press PotEng Density KinEng TotEng Lx Ly Lz Xlo Xhi Ylo Yhi Zlo Zhi Volume Dt
341.542 1.62584 -1.67951e+07 1.47605 1017.05 -1.67941e+07 681.953 681.953 681.953 1659.02 2340.98 1659.02 2340.98 1659.02 2340.98 3.1715e+08 0.25
Loop time of 4.79819 on 4 procs for 60000 steps with 1000 atoms

# run_style
run_style verlet

# write restart
write_restart ./pgnpmf/73/equpmf33.res
System init for write_restart ...
Generated 0 of 1 mixed pair_coeff terms from geometric mixing rule
