LAMMPS (23 Jun 2022 - Update 1)
# Read restart
read_restart ./pgnpmf/73/equpmf60.res
Reading restart file ...
  restart file = 23 Jun 2022, LAMMPS = 23 Jun 2022
  restoring atom style atomic from restart
  orthogonal box = (1696.4742 1696.4742 1696.4742) to (2303.5258 2303.5258 2303.5258)
  restoring pair style table from restart
  1000 atoms
  read_restart CPU = 0.004 seconds

# Settings

pair_style table spline 9941

pair_coeff 1 1 ./pgnpmf/N20.txt DE_GNP 75.6
pair_coeff 2 2 ./pgnpmf/N100.txt DE_GNP 115.92
pair_coeff 1 2 ./pgnpmf/mixed_potential.txt DE_GNP 95.66

#Neigh_list Calc Frequency

neigh_modify delay 0 every 1 check yes

# Saving Frequency (50 frames)

variable ts_save equal 5000

variable nts equal 5000/0.25
variable medium equal 20000*3
variable long equal 20000*5

# Dump
#dump_modify 1 first no sort id
dump 2 all cfg 50000 ./pgnpmf/73/equilibration/trajectory/dumpequ.tens_*.cfg mass type xs ys zs fx fy fz
dump_modify 2 element N20 N100

# thermo_style
thermo_style custom step temp press pe density ke etotal lx ly lz xlo xhi ylo yhi zlo zhi vol dt time cpu tpcpu spcpu cpuremain

# run info
timestep 0.25
thermo 5000

# fix

fix 1 all momentum 1000 linear 1 1 1 angular
variable T equal 300
fix 2 all nvt temp 300 370000 100.0

run 20000
Generated 0 of 1 mixed pair_coeff terms from geometric mixing rule
Unused restart file global fix info:
  fix style: npt, fix ID: 5
  update every 1 steps, delay 0 steps, check yes
Step          Temp          Press          PotEng        Density         KinEng         TotEng           Lx             Ly             Lz            Xlo            Xhi            Ylo            Yhi            Zlo            Zhi           Volume           Dt            Time           CPU           T/CPU          S/CPU         CPULeft
12060000   327.11107     -1.0788522     -21094707       2.0925911      974.08091     -21093733       607.05155      607.05155      607.05155      1696.4742      2303.5258      1696.4742      2303.5258      1696.4742      2303.5258      2.2370552e+08  0.25           3060000        0              0              0              0
Loop time of 1.639 on 4 procs for 20000 steps with 1000 atoms

unfix 2

fix 3 all nvt temp 370000 370000 $(100.0*dt) #iso 1.0 1.0 $(1000.0*dt)
fix 3 all nvt temp 370000 370000 25

run 100000
Generated 0 of 1 mixed pair_coeff terms from geometric mixing rule
Step          Temp          Press          PotEng        Density         KinEng         TotEng           Lx             Ly             Lz            Xlo            Xhi            Ylo            Yhi            Zlo            Zhi           Volume           Dt            Time           CPU           T/CPU          S/CPU         CPULeft
12080000   372124.04      972.18017     -20741388       2.0925911      1108121.8     -19633266       607.05155      607.05155      607.05155      1696.4742      2303.5258      1696.4742      2303.5258      1696.4742      2303.5258      2.2370552e+08  0.25           3065000        0              0              0              0
Averages over the last 11 of 21 rows, steps 12130000 to 12180000:
Temp Press PotEng Density KinEng TotEng Lx Ly Lz Xlo Xhi Ylo Yhi Zlo Zhi Volume Dt
373474 2155.17 -2.05124e+07 2.09259 1.11214e+06 -1.94003e+07 607.052 607.052 607.052 1696.47 2303.53 1696.47 2303.53 1696.47 2303.53 2.23706e+08 0.25
Loop time of 8.32534 on 4 procs for 100000 steps with 1000 atoms

unfix 3

fix 4 all nvt temp 370000 300 100.0

run 20000
Generated 0 of 1 mixed pair_coeff terms from geometric mixing rule
Step          Temp          Press          PotEng        Density         KinEng         TotEng           Lx             Ly             Lz            Xlo            Xhi            Ylo            Yhi            Zlo            Zhi           Volume           Dt            Time           CPU           T/CPU          S/CPU         CPULeft
12180000   345965.55      2318.4        -20476287       2.0925911      1030226.3     -19446061       607.05155      607.05155      607.05155      1696.4742      2303.5258      1696.4742      2303.5258      1696.4742      2303.5258      2.2370552e+08  0.25           3090000        0              0              0              0
Loop time of 1.62356 on 4 procs for 20000 steps with 1000 atoms

unfix 4

fix 5 all npt temp 300 300 $(100.0*dt) iso 1.0 1.0 $(1000.0*dt)
fix 5 all npt temp 300 300 25 iso 1.0 1.0 $(1000.0*dt)
fix 5 all npt temp 300 300 25 iso 1.0 1.0 250

run 60000
Generated 0 of 1 mixed pair_coeff terms from geometric mixing rule
Step          Temp          Press          PotEng        Density         KinEng         TotEng           Lx             Ly             Lz            Xlo            Xhi            Ylo            Yhi            Zlo            Zhi           Volume           Dt            Time           CPU           T/CPU          S/CPU         CPULeft
12200000   9845.0364      735.8136      -20964127       2.0925911      29316.837     -20934810       607.05155      607.05155      607.05155      1696.4742      2303.5258      1696.4742      2303.5258      1696.4742      2303.5258      2.2370552e+08  0.25           3095000        0              0              0              0
Averages over the last 7 of 13 rows, steps 12230000 to 12260000:
Temp Press PotEng Density KinEng TotEng Lx Ly Lz Xlo Xhi Ylo Yhi Zlo Zhi Volume Dt
330.051 2.90313 -2.10884e+07 2.0826 982.837 -2.10874e+07 608.021 608.021 608.021 1695.99 2304.01 1695.99 2304.01 1695.99 2304.01 2.24779e+08 0.25
Loop time of 5.64552 on 4 procs for 60000 steps with 1000 atoms

# run_style
run_style verlet

# write restart
write_restart ./pgnpmf/73/equpmf61.res
System init for write_restart ...
Generated 0 of 1 mixed pair_coeff terms from geometric mixing rule
