LAMMPS (23 Jun 2022 - Update 1)
# Read restart
read_restart ./pgnpmf/73/equpmf46.res
Reading restart file ...
  restart file = 23 Jun 2022, LAMMPS = 23 Jun 2022
  restoring atom style atomic from restart
  orthogonal box = (1695.1995 1695.1995 1695.1995) to (2304.8005 2304.8005 2304.8005)
  restoring pair style table from restart
  1000 atoms
  read_restart CPU = 0.004 seconds

# Settings

pair_style table spline 9941

pair_coeff 1 1 ./pgnpmf/N20.txt DE_GNP 75.6
pair_coeff 2 2 ./pgnpmf/N100.txt DE_GNP 115.92
pair_coeff 1 2 ./pgnpmf/mixed_potential.txt DE_GNP 95.66

#Neigh_list Calc Frequency

neigh_modify delay 0 every 1 check yes

# Saving Frequency (50 frames)

variable ts_save equal 5000

variable nts equal 5000/0.25
variable medium equal 20000*3
variable long equal 20000*5

# Dump
#dump_modify 1 first no sort id
dump 2 all cfg 50000 ./pgnpmf/73/equilibration/trajectory/dumpequ.tens_*.cfg mass type xs ys zs fx fy fz
dump_modify 2 element N20 N100

# thermo_style
thermo_style custom step temp press pe density ke etotal lx ly lz xlo xhi ylo yhi zlo zhi vol dt time cpu tpcpu spcpu cpuremain

# run info
timestep 0.25
thermo 5000

# fix

fix 1 all momentum 1000 linear 1 1 1 angular
variable T equal 300
fix 2 all nvt temp 300 370000 100.0

run 20000
Generated 0 of 1 mixed pair_coeff terms from geometric mixing rule
Unused restart file global fix info:
  fix style: npt, fix ID: 5
  update every 1 steps, delay 0 steps, check yes
Step          Temp          Press          PotEng        Density         KinEng         TotEng           Lx             Ly             Lz            Xlo            Xhi            Ylo            Yhi            Zlo            Zhi           Volume           Dt            Time           CPU           T/CPU          S/CPU         CPULeft
9260000   327.75121     -0.59301575    -20919861       2.0664468      975.98715     -20918885       609.60092      609.60092      609.60092      1695.1995      2304.8005      1695.1995      2304.8005      1695.1995      2304.8005      2.265358e+08   0.25           2360000        0              0              0              0
Loop time of 1.63923 on 4 procs for 20000 steps with 1000 atoms

unfix 2

fix 3 all nvt temp 370000 370000 $(100.0*dt) #iso 1.0 1.0 $(1000.0*dt)
fix 3 all nvt temp 370000 370000 25

run 100000
Generated 0 of 1 mixed pair_coeff terms from geometric mixing rule
Step          Temp          Press          PotEng        Density         KinEng         TotEng           Lx             Ly             Lz            Xlo            Xhi            Ylo            Yhi            Zlo            Zhi           Volume           Dt            Time           CPU           T/CPU          S/CPU         CPULeft
9280000   371942.79      902.55993     -20616844       2.0664468      1107582.1     -19509262       609.60092      609.60092      609.60092      1695.1995      2304.8005      1695.1995      2304.8005      1695.1995      2304.8005      2.265358e+08   0.25           2365000        0              0              0              0
Averages over the last 11 of 21 rows, steps 9330000 to 9380000:
Temp Press PotEng Density KinEng TotEng Lx Ly Lz Xlo Xhi Ylo Yhi Zlo Zhi Volume Dt
369097 2057.25 -2.02038e+07 2.06645 1.09911e+06 -1.91047e+07 609.601 609.601 609.601 1695.2 2304.8 1695.2 2304.8 1695.2 2304.8 2.26536e+08 0.25
Loop time of 8.35567 on 4 procs for 100000 steps with 1000 atoms

unfix 3

fix 4 all nvt temp 370000 300 100.0

run 20000
Generated 0 of 1 mixed pair_coeff terms from geometric mixing rule
Step          Temp          Press          PotEng        Density         KinEng         TotEng           Lx             Ly             Lz            Xlo            Xhi            Ylo            Yhi            Zlo            Zhi           Volume           Dt            Time           CPU           T/CPU          S/CPU         CPULeft
9380000   368487.3       2102.7521     -20227891       2.0664468      1097292.3     -19130599       609.60092      609.60092      609.60092      1695.1995      2304.8005      1695.1995      2304.8005      1695.1995      2304.8005      2.265358e+08   0.25           2390000        0              0              0              0
Loop time of 1.63746 on 4 procs for 20000 steps with 1000 atoms

unfix 4

fix 5 all npt temp 300 300 $(100.0*dt) iso 1.0 1.0 $(1000.0*dt)
fix 5 all npt temp 300 300 25 iso 1.0 1.0 $(1000.0*dt)
fix 5 all npt temp 300 300 25 iso 1.0 1.0 250

run 60000
Generated 0 of 1 mixed pair_coeff terms from geometric mixing rule
Step          Temp          Press          PotEng        Density         KinEng         TotEng           Lx             Ly             Lz            Xlo            Xhi            Ylo            Yhi            Zlo            Zhi           Volume           Dt            Time           CPU           T/CPU          S/CPU         CPULeft
9400000   9647.822       504.76025     -20706757       2.0664468      28729.567     -20678027       609.60092      609.60092      609.60092      1695.1995      2304.8005      1695.1995      2304.8005      1695.1995      2304.8005      2.265358e+08   0.25           2395000        0              0              0              0
Averages over the last 7 of 13 rows, steps 9430000 to 9460000:
Temp Press PotEng Density KinEng TotEng Lx Ly Lz Xlo Xhi Ylo Yhi Zlo Zhi Volume Dt
329.703 0.172367 -2.08502e+07 2.06411 981.799 -2.08492e+07 609.831 609.831 609.831 1695.08 2304.92 1695.08 2304.92 1695.08 2304.92 2.26792e+08 0.25
Loop time of 5.69846 on 4 procs for 60000 steps with 1000 atoms

# run_style
run_style verlet

# write restart
write_restart ./pgnpmf/73/equpmf47.res
System init for write_restart ...
Generated 0 of 1 mixed pair_coeff terms from geometric mixing rule
