LAMMPS (23 Jun 2022 - Update 1)
# Read restart
read_restart ./pgnpmf/500500/equpmf23.res
Reading restart file ...
  restart file = 23 Jun 2022, LAMMPS = 23 Jun 2022
  restoring atom style atomic from restart
  orthogonal box = (2017.3507 2017.3507 2017.3507) to (2982.6493 2982.6493 2982.6493)
  restoring pair style table from restart
  1000 atoms
  read_restart CPU = 0.015 seconds

# Settings

pair_style table spline 9941

pair_coeff 1 1 ./pgnpmf/N20.txt DE_GNP 75.6
pair_coeff 2 2 ./pgnpmf/N100.txt DE_GNP 115.92
pair_coeff 1 2 ./pgnpmf/mixed_potential.txt DE_GNP 95.66

#Neigh_list Calc Frequency

neigh_modify delay 0 every 1 check yes

# Saving Frequency (50 frames)

variable ts_save equal 5000

# Dump
#dump_modify 1 first no sort id
#dump 2 all cfg 50000 ./equilibration/trajectory/ovito/dumpgen.tens_*.cfg mass type xs ys zs fx fy fz

# thermo_style
thermo_style custom step temp press pe density ke etotal lx ly lz xlo xhi ylo yhi zlo zhi vol dt time cpu tpcpu spcpu cpuremain

# run info
timestep 0.5
thermo 200

# fix

fix 1 all momentum 1000 linear 1 1 1 angular
variable T equal 300
fix 2 all nvt temp 300 370000 100.0

run 100000
Generated 0 of 1 mixed pair_coeff terms from geometric mixing rule
Unused restart file global fix info:
  fix style: npt, fix ID: 5
  update every 1 steps, delay 0 steps, check yes
Step          Temp          Press          PotEng        Density         KinEng         TotEng           Lx             Ly             Lz            Xlo            Xhi            Ylo            Yhi            Zlo            Zhi           Volume           Dt            Time           CPU           T/CPU          S/CPU         CPULeft
16105000   307.78143      0.1901799     -24898510       0.59436587     916.52055     -24897593       965.29856      965.29856      965.29856      2017.3507      2982.6493      2017.3507      2982.6493      2017.3507      2982.6493      8.9946647e+08  0.5            8055000        0              0              0              0
Averages over the last 251 of 501 rows, steps 16155000 to 16205000:
Temp Press PotEng Density KinEng TotEng Lx Ly Lz Xlo Xhi Ylo Yhi Zlo Zhi Volume Dt
277442 32.9427 -2.46229e+07 0.594366 826174 -2.37967e+07 965.299 965.299 965.299 2017.35 2982.65 2017.35 2982.65 2017.35 2982.65 8.99466e+08 0.5
Loop time of 7.93975 on 4 procs for 100000 steps with 1000 atoms

unfix 2

fix 3 all nvt temp 370000 370000 $(100.0*dt) #iso 1.0 1.0 $(1000.0*dt)
fix 3 all nvt temp 370000 370000 50

run 200000
Generated 0 of 1 mixed pair_coeff terms from geometric mixing rule
Step          Temp          Press          PotEng        Density         KinEng         TotEng           Lx             Ly             Lz            Xlo            Xhi            Ylo            Yhi            Zlo            Zhi           Volume           Dt            Time           CPU           T/CPU          S/CPU         CPULeft
16205000   373654.57      2.8357444     -24308147       0.59436587     1112679.5     -23195467       965.29856      965.29856      965.29856      2017.3507      2982.6493      2017.3507      2982.6493      2017.3507      2982.6493      8.9946647e+08  0.5            8105000        0              0              0              0
Averages over the last 501 of 1001 rows, steps 16305000 to 16405000:
Temp Press PotEng Density KinEng TotEng Lx Ly Lz Xlo Xhi Ylo Yhi Zlo Zhi Volume Dt
369889 19.6428 -2.35712e+07 0.594366 1.10147e+06 -2.24697e+07 965.299 965.299 965.299 2017.35 2982.65 2017.35 2982.65 2017.35 2982.65 8.99466e+08 0.5
Loop time of 15.8931 on 4 procs for 200000 steps with 1000 atoms

unfix 3

fix 4 all nvt temp 370000 300 100.0

run 100000
Generated 0 of 1 mixed pair_coeff terms from geometric mixing rule
Step          Temp          Press          PotEng        Density         KinEng         TotEng           Lx             Ly             Lz            Xlo            Xhi            Ylo            Yhi            Zlo            Zhi           Volume           Dt            Time           CPU           T/CPU          S/CPU         CPULeft
16405000   367994.84     -0.42955618    -23489968       0.59436587     1095825.8     -22394142       965.29856      965.29856      965.29856      2017.3507      2982.6493      2017.3507      2982.6493      2017.3507      2982.6493      8.9946647e+08  0.5            8205000        0              0              0              0
Averages over the last 251 of 501 rows, steps 16455000 to 16505000:
Temp Press PotEng Density KinEng TotEng Lx Ly Lz Xlo Xhi Ylo Yhi Zlo Zhi Volume Dt
93153.9 -108.792 -2.47568e+07 0.594366 277396 -2.44794e+07 965.299 965.299 965.299 2017.35 2982.65 2017.35 2982.65 2017.35 2982.65 8.99466e+08 0.5
Loop time of 8.04759 on 4 procs for 100000 steps with 1000 atoms

unfix 4

fix 5 all npt temp 300 300 $(100.0*dt) iso 1.0 1.0 $(1000.0*dt)
fix 5 all npt temp 300 300 50 iso 1.0 1.0 $(1000.0*dt)
fix 5 all npt temp 300 300 50 iso 1.0 1.0 500

run 300000
Generated 0 of 1 mixed pair_coeff terms from geometric mixing rule
Step          Temp          Press          PotEng        Density         KinEng         TotEng           Lx             Ly             Lz            Xlo            Xhi            Ylo            Yhi            Zlo            Zhi           Volume           Dt            Time           CPU           T/CPU          S/CPU         CPULeft
16505000   1369.5748     -147.45495     -25325389       0.59436587     4078.36       -25321310       965.29856      965.29856      965.29856      2017.3507      2982.6493      2017.3507      2982.6493      2017.3507      2982.6493      8.9946647e+08  0.5            8255000        0              0              0              0
Averages over the last 751 of 1501 rows, steps 16655000 to 16805000:
Temp Press PotEng Density KinEng TotEng Lx Ly Lz Xlo Xhi Ylo Yhi Zlo Zhi Volume Dt
310.149 0.996389 -2.57543e+07 0.61799 923.572 -2.57533e+07 952.841 952.841 952.841 2023.58 2976.42 2023.58 2976.42 2023.58 2976.42 8.65093e+08 0.5
Loop time of 29.8801 on 4 procs for 300000 steps with 1000 atoms

# run_style
run_style verlet

# write restart
write_restart ./pgnpmf/500500/equpmf24.res
System init for write_restart ...
Generated 0 of 1 mixed pair_coeff terms from geometric mixing rule
