LAMMPS (23 Jun 2022 - Update 1)
# Read restart
read_restart ./pgnpmf/500500/equpmf19.res
Reading restart file ...
  restart file = 23 Jun 2022, LAMMPS = 23 Jun 2022
  restoring atom style atomic from restart
  orthogonal box = (1983.0482 1983.0482 1983.0482) to (3016.9518 3016.9518 3016.9518)
  restoring pair style table from restart
  1000 atoms
  read_restart CPU = 0.016 seconds

# Settings

pair_style table spline 9941

pair_coeff 1 1 ./pgnpmf/N20.txt DE_GNP 75.6
pair_coeff 2 2 ./pgnpmf/N100.txt DE_GNP 115.92
pair_coeff 1 2 ./pgnpmf/mixed_potential.txt DE_GNP 95.66

#Neigh_list Calc Frequency

neigh_modify delay 0 every 1 check yes

# Saving Frequency (50 frames)

variable ts_save equal 5000

# Dump
#dump_modify 1 first no sort id
#dump 2 all cfg 50000 ./equilibration/trajectory/ovito/dumpgen.tens_*.cfg mass type xs ys zs fx fy fz

# thermo_style
thermo_style custom step temp press pe density ke etotal lx ly lz xlo xhi ylo yhi zlo zhi vol dt time cpu tpcpu spcpu cpuremain

# run info
timestep 0.5
thermo 200

# fix

fix 1 all momentum 1000 linear 1 1 1 angular
variable T equal 300
fix 2 all nvt temp 300 370000 100.0

run 100000
Generated 0 of 1 mixed pair_coeff terms from geometric mixing rule
Unused restart file global fix info:
  fix style: npt, fix ID: 5
  update every 1 steps, delay 0 steps, check yes
Step          Temp          Press          PotEng        Density         KinEng         TotEng           Lx             Ly             Lz            Xlo            Xhi            Ylo            Yhi            Zlo            Zhi           Volume           Dt            Time           CPU           T/CPU          S/CPU         CPULeft
13305000   309.67874      0.71207732    -22200642       0.48372508     922.17039     -22199719       1033.9037      1033.9037      1033.9037      1983.0482      3016.9518      1983.0482      3016.9518      1983.0482      3016.9518      1.1051984e+09  0.5            6655000        0              0              0              0
Averages over the last 251 of 501 rows, steps 13355000 to 13405000:
Temp Press PotEng Density KinEng TotEng Lx Ly Lz Xlo Xhi Ylo Yhi Zlo Zhi Volume Dt
277530 18.5261 -2.18638e+07 0.483725 826436 -2.10374e+07 1033.9 1033.9 1033.9 1983.05 3016.95 1983.05 3016.95 1983.05 3016.95 1.1052e+09 0.5
Loop time of 7.59027 on 4 procs for 100000 steps with 1000 atoms

unfix 2

fix 3 all nvt temp 370000 370000 $(100.0*dt) #iso 1.0 1.0 $(1000.0*dt)
fix 3 all nvt temp 370000 370000 50

run 200000
Generated 0 of 1 mixed pair_coeff terms from geometric mixing rule
Step          Temp          Press          PotEng        Density         KinEng         TotEng           Lx             Ly             Lz            Xlo            Xhi            Ylo            Yhi            Zlo            Zhi           Volume           Dt            Time           CPU           T/CPU          S/CPU         CPULeft
13405000   375885.15      9.3510835     -21452176       0.48372508     1119321.8     -20332854       1033.9037      1033.9037      1033.9037      1983.0482      3016.9518      1983.0482      3016.9518      1983.0482      3016.9518      1.1051984e+09  0.5            6705000        0              0              0              0
Averages over the last 501 of 1001 rows, steps 13505000 to 13605000:
Temp Press PotEng Density KinEng TotEng Lx Ly Lz Xlo Xhi Ylo Yhi Zlo Zhi Volume Dt
369743 12.0593 -2.07384e+07 0.483725 1.10103e+06 -1.96374e+07 1033.9 1033.9 1033.9 1983.05 3016.95 1983.05 3016.95 1983.05 3016.95 1.1052e+09 0.5
Loop time of 14.4546 on 4 procs for 200000 steps with 1000 atoms

unfix 3

fix 4 all nvt temp 370000 300 100.0

run 100000
Generated 0 of 1 mixed pair_coeff terms from geometric mixing rule
Step          Temp          Press          PotEng        Density         KinEng         TotEng           Lx             Ly             Lz            Xlo            Xhi            Ylo            Yhi            Zlo            Zhi           Volume           Dt            Time           CPU           T/CPU          S/CPU         CPULeft
13605000   366994.86      34.097606     -20583980       0.48372508     1092848       -19491132       1033.9037      1033.9037      1033.9037      1983.0482      3016.9518      1983.0482      3016.9518      1983.0482      3016.9518      1.1051984e+09  0.5            6805000        0              0              0              0
Averages over the last 251 of 501 rows, steps 13655000 to 13705000:
Temp Press PotEng Density KinEng TotEng Lx Ly Lz Xlo Xhi Ylo Yhi Zlo Zhi Volume Dt
93116.2 -68.4003 -2.17762e+07 0.483725 277284 -2.14989e+07 1033.9 1033.9 1033.9 1983.05 3016.95 1983.05 3016.95 1983.05 3016.95 1.1052e+09 0.5
Loop time of 7.09839 on 4 procs for 100000 steps with 1000 atoms

unfix 4

fix 5 all npt temp 300 300 $(100.0*dt) iso 1.0 1.0 $(1000.0*dt)
fix 5 all npt temp 300 300 50 iso 1.0 1.0 $(1000.0*dt)
fix 5 all npt temp 300 300 50 iso 1.0 1.0 500

run 300000
Generated 0 of 1 mixed pair_coeff terms from geometric mixing rule
Step          Temp          Press          PotEng        Density         KinEng         TotEng           Lx             Ly             Lz            Xlo            Xhi            Ylo            Yhi            Zlo            Zhi           Volume           Dt            Time           CPU           T/CPU          S/CPU         CPULeft
13705000   1366.669      -90.174043     -22240261       0.48372508     4069.707      -22236192       1033.9037      1033.9037      1033.9037      1983.0482      3016.9518      1983.0482      3016.9518      1983.0482      3016.9518      1.1051984e+09  0.5            6855000        0              0              0              0
Averages over the last 751 of 1501 rows, steps 13855000 to 14005000:
Temp Press PotEng Density KinEng TotEng Lx Ly Lz Xlo Xhi Ylo Yhi Zlo Zhi Volume Dt
310.573 0.994241 -2.2722e+07 0.508942 924.833 -2.2721e+07 1016.55 1016.55 1016.55 1991.73 3008.27 1991.73 3008.27 1991.73 3008.27 1.05048e+09 0.5
Loop time of 27.1091 on 4 procs for 300000 steps with 1000 atoms

# run_style
run_style verlet

# write restart
write_restart ./pgnpmf/500500/equpmf20.res
System init for write_restart ...
Generated 0 of 1 mixed pair_coeff terms from geometric mixing rule
