LAMMPS (23 Jun 2022 - Update 1)
# Read restart
read_restart ./pgnpmf/500500/equpmf15.res
Reading restart file ...
  restart file = 23 Jun 2022, LAMMPS = 23 Jun 2022
  restoring atom style atomic from restart
  orthogonal box = (1936.1945 1936.1945 1936.1945) to (3063.8055 3063.8055 3063.8055)
  restoring pair style table from restart
  1000 atoms
  read_restart CPU = 0.019 seconds

# Settings

pair_style table spline 9941

pair_coeff 1 1 ./pgnpmf/N20.txt DE_GNP 75.6
pair_coeff 2 2 ./pgnpmf/N100.txt DE_GNP 115.92
pair_coeff 1 2 ./pgnpmf/mixed_potential.txt DE_GNP 95.66

#Neigh_list Calc Frequency

neigh_modify delay 0 every 1 check yes

# Saving Frequency (50 frames)

variable ts_save equal 5000

# Dump
#dump_modify 1 first no sort id
#dump 2 all cfg 50000 ./equilibration/trajectory/ovito/dumpgen.tens_*.cfg mass type xs ys zs fx fy fz

# thermo_style
thermo_style custom step temp press pe density ke etotal lx ly lz xlo xhi ylo yhi zlo zhi vol dt time cpu tpcpu spcpu cpuremain

# run info
timestep 0.5
thermo 200

# fix

fix 1 all momentum 1000 linear 1 1 1 angular
variable T equal 300
fix 2 all nvt temp 300 370000 100.0

run 100000
Generated 0 of 1 mixed pair_coeff terms from geometric mixing rule
Unused restart file global fix info:
  fix style: npt, fix ID: 5
  update every 1 steps, delay 0 steps, check yes
Step          Temp          Press          PotEng        Density         KinEng         TotEng           Lx             Ly             Lz            Xlo            Xhi            Ylo            Yhi            Zlo            Zhi           Volume           Dt            Time           CPU           T/CPU          S/CPU         CPULeft
10505000   311.00414      1.2125764     -17879581       0.37287301     926.11724     -17878655       1127.611       1127.611       1127.611       1936.1945      3063.8055      1936.1945      3063.8055      1936.1945      3063.8055      1.4337647e+09  0.5            5255000        0              0              0              0
Averages over the last 251 of 501 rows, steps 10555000 to 10605000:
Temp Press PotEng Density KinEng TotEng Lx Ly Lz Xlo Xhi Ylo Yhi Zlo Zhi Volume Dt
277363 21.2543 -1.79168e+07 0.372873 825940 -1.70908e+07 1127.61 1127.61 1127.61 1936.19 3063.81 1936.19 3063.81 1936.19 3063.81 1.43376e+09 0.5
Loop time of 6.8762 on 4 procs for 100000 steps with 1000 atoms

unfix 2

fix 3 all nvt temp 370000 370000 $(100.0*dt) #iso 1.0 1.0 $(1000.0*dt)
fix 3 all nvt temp 370000 370000 50

run 200000
Generated 0 of 1 mixed pair_coeff terms from geometric mixing rule
Step          Temp          Press          PotEng        Density         KinEng         TotEng           Lx             Ly             Lz            Xlo            Xhi            Ylo            Yhi            Zlo            Zhi           Volume           Dt            Time           CPU           T/CPU          S/CPU         CPULeft
10605000   368377.57      22.575683     -17564376       0.37287301     1096965.5     -16467411       1127.611       1127.611       1127.611       1936.1945      3063.8055      1936.1945      3063.8055      1936.1945      3063.8055      1.4337647e+09  0.5            5305000        0              0              0              0
Averages over the last 501 of 1001 rows, steps 10705000 to 10805000:
Temp Press PotEng Density KinEng TotEng Lx Ly Lz Xlo Xhi Ylo Yhi Zlo Zhi Volume Dt
369940 9.21273 -1.67111e+07 0.372873 1.10162e+06 -1.56094e+07 1127.61 1127.61 1127.61 1936.19 3063.81 1936.19 3063.81 1936.19 3063.81 1.43376e+09 0.5
Loop time of 13.1669 on 4 procs for 200000 steps with 1000 atoms

unfix 3

fix 4 all nvt temp 370000 300 100.0

run 100000
Generated 0 of 1 mixed pair_coeff terms from geometric mixing rule
Step          Temp          Press          PotEng        Density         KinEng         TotEng           Lx             Ly             Lz            Xlo            Xhi            Ylo            Yhi            Zlo            Zhi           Volume           Dt            Time           CPU           T/CPU          S/CPU         CPULeft
10805000   359296.06     -10.599725     -16928021       0.37287301     1069922.3     -15858099       1127.611       1127.611       1127.611       1936.1945      3063.8055      1936.1945      3063.8055      1936.1945      3063.8055      1.4337647e+09  0.5            5405000        0              0              0              0
Averages over the last 251 of 501 rows, steps 10855000 to 10905000:
Temp Press PotEng Density KinEng TotEng Lx Ly Lz Xlo Xhi Ylo Yhi Zlo Zhi Volume Dt
93083.4 -48.5033 -1.80534e+07 0.372873 277187 -1.77762e+07 1127.61 1127.61 1127.61 1936.19 3063.81 1936.19 3063.81 1936.19 3063.81 1.43376e+09 0.5
Loop time of 6.62707 on 4 procs for 100000 steps with 1000 atoms

unfix 4

fix 5 all npt temp 300 300 $(100.0*dt) iso 1.0 1.0 $(1000.0*dt)
fix 5 all npt temp 300 300 50 iso 1.0 1.0 $(1000.0*dt)
fix 5 all npt temp 300 300 50 iso 1.0 1.0 500

run 300000
Generated 0 of 1 mixed pair_coeff terms from geometric mixing rule
Step          Temp          Press          PotEng        Density         KinEng         TotEng           Lx             Ly             Lz            Xlo            Xhi            Ylo            Yhi            Zlo            Zhi           Volume           Dt            Time           CPU           T/CPU          S/CPU         CPULeft
10905000   1367.1538     -68.102566     -18536213       0.37287301     4071.1506     -18532142       1127.611       1127.611       1127.611       1936.1945      3063.8055      1936.1945      3063.8055      1936.1945      3063.8055      1.4337647e+09  0.5            5455000        0              0              0              0
Averages over the last 751 of 1501 rows, steps 11055000 to 11205000:
Temp Press PotEng Density KinEng TotEng Lx Ly Lz Xlo Xhi Ylo Yhi Zlo Zhi Volume Dt
311.267 1.02634 -1.91092e+07 0.398534 926.9 -1.91083e+07 1102.89 1102.89 1102.89 1948.56 3051.44 1948.56 3051.44 1948.56 3051.44 1.34153e+09 0.5
Loop time of 25.7737 on 4 procs for 300000 steps with 1000 atoms

# run_style
run_style verlet

# write restart
write_restart ./pgnpmf/500500/equpmf16.res
System init for write_restart ...
Generated 0 of 1 mixed pair_coeff terms from geometric mixing rule
