LAMMPS (23 Jun 2022 - Update 1)
# Read restart
read_restart ./pgnpmf/500500/equpmf7.res
Reading restart file ...
  restart file = 23 Jun 2022, LAMMPS = 23 Jun 2022
  restoring atom style atomic from restart
  orthogonal box = (1685.9992 1685.9992 1685.9992) to (3314.0008 3314.0008 3314.0008)
  restoring pair style table from restart
  1000 atoms
  read_restart CPU = 0.016 seconds

# Settings

pair_style table spline 9941

pair_coeff 1 1 ./pgnpmf/N20.txt DE_GNP 75.6
pair_coeff 2 2 ./pgnpmf/N100.txt DE_GNP 115.92
pair_coeff 1 2 ./pgnpmf/mixed_potential.txt DE_GNP 95.66

#Neigh_list Calc Frequency

neigh_modify delay 0 every 1 check yes

# Saving Frequency (50 frames)

variable ts_save equal 5000

# Dump
#dump_modify 1 first no sort id
#dump 2 all cfg 50000 ./equilibration/trajectory/ovito/dumpgen.tens_*.cfg mass type xs ys zs fx fy fz

# thermo_style
thermo_style custom step temp press pe density ke etotal lx ly lz xlo xhi ylo yhi zlo zhi vol dt time cpu tpcpu spcpu cpuremain

# run info
timestep 0.5
thermo 200

# fix

fix 1 all momentum 1000 linear 1 1 1 angular
variable T equal 300
fix 2 all nvt temp 300 370000 100.0

run 100000
Generated 0 of 1 mixed pair_coeff terms from geometric mixing rule
Unused restart file global fix info:
  fix style: npt, fix ID: 5
  update every 1 steps, delay 0 steps, check yes
Step          Temp          Press          PotEng        Density         KinEng         TotEng           Lx             Ly             Lz            Xlo            Xhi            Ylo            Yhi            Zlo            Zhi           Volume           Dt            Time           CPU           T/CPU          S/CPU         CPULeft
4905000   310.68295      1.0562219     -6849509.5      0.12390088     925.16078     -6848584.4      1628.0015      1628.0015      1628.0015      1685.9992      3314.0008      1685.9992      3314.0008      1685.9992      3314.0008      4.3148374e+09  0.5            2455000        0              0              0              0
Averages over the last 251 of 501 rows, steps 4955000 to 5005000:
Temp Press PotEng Density KinEng TotEng Lx Ly Lz Xlo Xhi Ylo Yhi Zlo Zhi Volume Dt
277949 5.77744 -6.81966e+06 0.123901 827685 -5.99197e+06 1628 1628 1628 1686 3314 1686 3314 1686 3314 4.31484e+09 0.5
Loop time of 5.68616 on 4 procs for 100000 steps with 1000 atoms

unfix 2

fix 3 all nvt temp 370000 370000 $(100.0*dt) #iso 1.0 1.0 $(1000.0*dt)
fix 3 all nvt temp 370000 370000 50

run 200000
Generated 0 of 1 mixed pair_coeff terms from geometric mixing rule
Step          Temp          Press          PotEng        Density         KinEng         TotEng           Lx             Ly             Lz            Xlo            Xhi            Ylo            Yhi            Zlo            Zhi           Volume           Dt            Time           CPU           T/CPU          S/CPU         CPULeft
5005000   374523.6       12.671944     -6641899.4      0.12390088     1115267.3     -5526632        1628.0015      1628.0015      1628.0015      1685.9992      3314.0008      1685.9992      3314.0008      1685.9992      3314.0008      4.3148374e+09  0.5            2505000        0              0              0              0
Averages over the last 501 of 1001 rows, steps 5105000 to 5205000:
Temp Press PotEng Density KinEng TotEng Lx Ly Lz Xlo Xhi Ylo Yhi Zlo Zhi Volume Dt
370282 7.32787 -6.65171e+06 0.123901 1.10264e+06 -5.54908e+06 1628 1628 1628 1686 3314 1686 3314 1686 3314 4.31484e+09 0.5
Loop time of 11.3126 on 4 procs for 200000 steps with 1000 atoms

unfix 3

fix 4 all nvt temp 370000 300 100.0

run 100000
Generated 0 of 1 mixed pair_coeff terms from geometric mixing rule
Step          Temp          Press          PotEng        Density         KinEng         TotEng           Lx             Ly             Lz            Xlo            Xhi            Ylo            Yhi            Zlo            Zhi           Volume           Dt            Time           CPU           T/CPU          S/CPU         CPULeft
5205000   376571.22      8.4706821     -6750015.7      0.12390088     1121364.8     -5628650.9      1628.0015      1628.0015      1628.0015      1685.9992      3314.0008      1685.9992      3314.0008      1685.9992      3314.0008      4.3148374e+09  0.5            2605000        0              0              0              0
Averages over the last 251 of 501 rows, steps 5255000 to 5305000:
Temp Press PotEng Density KinEng TotEng Lx Ly Lz Xlo Xhi Ylo Yhi Zlo Zhi Volume Dt
92980.5 -6.49117 -7.36224e+06 0.123901 276880 -7.08536e+06 1628 1628 1628 1686 3314 1686 3314 1686 3314 4.31484e+09 0.5
Loop time of 6.07703 on 4 procs for 100000 steps with 1000 atoms

unfix 4

fix 5 all npt temp 300 300 $(100.0*dt) iso 1.0 1.0 $(1000.0*dt)
fix 5 all npt temp 300 300 50 iso 1.0 1.0 $(1000.0*dt)
fix 5 all npt temp 300 300 50 iso 1.0 1.0 500

run 300000
Generated 0 of 1 mixed pair_coeff terms from geometric mixing rule
Step          Temp          Press          PotEng        Density         KinEng         TotEng           Lx             Ly             Lz            Xlo            Xhi            Ylo            Yhi            Zlo            Zhi           Volume           Dt            Time           CPU           T/CPU          S/CPU         CPULeft
5305000   1346.2967     -13.541684     -7642019.8      0.12390088     4009.0415     -7638010.8      1628.0015      1628.0015      1628.0015      1685.9992      3314.0008      1685.9992      3314.0008      1685.9992      3314.0008      4.3148374e+09  0.5            2655000        0              0              0              0
Averages over the last 751 of 1501 rows, steps 5455000 to 5605000:
Temp Press PotEng Density KinEng TotEng Lx Ly Lz Xlo Xhi Ylo Yhi Zlo Zhi Volume Dt
313.173 0.995943 -8.21431e+06 0.143795 932.576 -8.21338e+06 1549.31 1549.31 1549.31 1725.35 3274.65 1725.35 3274.65 1725.35 3274.65 3.71937e+09 0.5
Loop time of 24.4001 on 4 procs for 300000 steps with 1000 atoms

# run_style
run_style verlet

# write restart
write_restart ./pgnpmf/500500/equpmf8.res
System init for write_restart ...
Generated 0 of 1 mixed pair_coeff terms from geometric mixing rule
