LAMMPS (23 Jun 2022 - Update 1)
# Read restart
read_restart ./pgnpmf/500500/equpmf22.res
Reading restart file ...
  restart file = 23 Jun 2022, LAMMPS = 23 Jun 2022
  restoring atom style atomic from restart
  orthogonal box = (2009.6992 2009.6992 2009.6992) to (2990.3008 2990.3008 2990.3008)
  restoring pair style table from restart
  1000 atoms
  read_restart CPU = 0.016 seconds

# Settings

pair_style table spline 9941

pair_coeff 1 1 ./pgnpmf/N20.txt DE_GNP 75.6
pair_coeff 2 2 ./pgnpmf/N100.txt DE_GNP 115.92
pair_coeff 1 2 ./pgnpmf/mixed_potential.txt DE_GNP 95.66

#Neigh_list Calc Frequency

neigh_modify delay 0 every 1 check yes

# Saving Frequency (50 frames)

variable ts_save equal 5000

# Dump
#dump_modify 1 first no sort id
#dump 2 all cfg 50000 ./equilibration/trajectory/ovito/dumpgen.tens_*.cfg mass type xs ys zs fx fy fz

# thermo_style
thermo_style custom step temp press pe density ke etotal lx ly lz xlo xhi ylo yhi zlo zhi vol dt time cpu tpcpu spcpu cpuremain

# run info
timestep 0.5
thermo 200

# fix

fix 1 all momentum 1000 linear 1 1 1 angular
variable T equal 300
fix 2 all nvt temp 300 370000 100.0

run 100000
Generated 0 of 1 mixed pair_coeff terms from geometric mixing rule
Unused restart file global fix info:
  fix style: npt, fix ID: 5
  update every 1 steps, delay 0 steps, check yes
Step          Temp          Press          PotEng        Density         KinEng         TotEng           Lx             Ly             Lz            Xlo            Xhi            Ylo            Yhi            Zlo            Zhi           Volume           Dt            Time           CPU           T/CPU          S/CPU         CPULeft
15405000   307.96501      0.6270866     -24397337       0.56697135     917.06721     -24396420       980.60155      980.60155      980.60155      2009.6992      2990.3008      2009.6992      2990.3008      2009.6992      2990.3008      9.4292625e+08  0.5            7705000        0              0              0              0
Averages over the last 251 of 501 rows, steps 15455000 to 15505000:
Temp Press PotEng Density KinEng TotEng Lx Ly Lz Xlo Xhi Ylo Yhi Zlo Zhi Volume Dt
277336 9.42938 -2.39736e+07 0.566971 825860 -2.31477e+07 980.602 980.602 980.602 2009.7 2990.3 2009.7 2990.3 2009.7 2990.3 9.42926e+08 0.5
Loop time of 7.78525 on 4 procs for 100000 steps with 1000 atoms

unfix 2

fix 3 all nvt temp 370000 370000 $(100.0*dt) #iso 1.0 1.0 $(1000.0*dt)
fix 3 all nvt temp 370000 370000 50

run 200000
Generated 0 of 1 mixed pair_coeff terms from geometric mixing rule
Step          Temp          Press          PotEng        Density         KinEng         TotEng           Lx             Ly             Lz            Xlo            Xhi            Ylo            Yhi            Zlo            Zhi           Volume           Dt            Time           CPU           T/CPU          S/CPU         CPULeft
15505000   362195.56      21.946854     -23572117       0.56697135     1078556.5     -22493560       980.60155      980.60155      980.60155      2009.6992      2990.3008      2009.6992      2990.3008      2009.6992      2990.3008      9.4292625e+08  0.5            7755000        0              0              0              0
Averages over the last 501 of 1001 rows, steps 15605000 to 15705000:
Temp Press PotEng Density KinEng TotEng Lx Ly Lz Xlo Xhi Ylo Yhi Zlo Zhi Volume Dt
370302 12.2737 -2.28003e+07 0.566971 1.1027e+06 -2.16976e+07 980.602 980.602 980.602 2009.7 2990.3 2009.7 2990.3 2009.7 2990.3 9.42926e+08 0.5
Loop time of 15.4213 on 4 procs for 200000 steps with 1000 atoms

unfix 3

fix 4 all nvt temp 370000 300 100.0

run 100000
Generated 0 of 1 mixed pair_coeff terms from geometric mixing rule
Step          Temp          Press          PotEng        Density         KinEng         TotEng           Lx             Ly             Lz            Xlo            Xhi            Ylo            Yhi            Zlo            Zhi           Volume           Dt            Time           CPU           T/CPU          S/CPU         CPULeft
15705000   375901.19      58.434098     -22868817       0.56697135     1119369.6     -21749447       980.60155      980.60155      980.60155      2009.6992      2990.3008      2009.6992      2990.3008      2009.6992      2990.3008      9.4292625e+08  0.5            7855000        0              0              0              0
Averages over the last 251 of 501 rows, steps 15755000 to 15805000:
Temp Press PotEng Density KinEng TotEng Lx Ly Lz Xlo Xhi Ylo Yhi Zlo Zhi Volume Dt
93083.1 -90.0085 -2.38075e+07 0.566971 277185 -2.35304e+07 980.602 980.602 980.602 2009.7 2990.3 2009.7 2990.3 2009.7 2990.3 9.42926e+08 0.5
Loop time of 7.5578 on 4 procs for 100000 steps with 1000 atoms

unfix 4

fix 5 all npt temp 300 300 $(100.0*dt) iso 1.0 1.0 $(1000.0*dt)
fix 5 all npt temp 300 300 50 iso 1.0 1.0 $(1000.0*dt)
fix 5 all npt temp 300 300 50 iso 1.0 1.0 500

run 300000
Generated 0 of 1 mixed pair_coeff terms from geometric mixing rule
Step          Temp          Press          PotEng        Density         KinEng         TotEng           Lx             Ly             Lz            Xlo            Xhi            Ylo            Yhi            Zlo            Zhi           Volume           Dt            Time           CPU           T/CPU          S/CPU         CPULeft
15805000   1358.3614     -112.54419     -24288914       0.56697135     4044.9684     -24284869       980.60155      980.60155      980.60155      2009.6992      2990.3008      2009.6992      2990.3008      2009.6992      2990.3008      9.4292625e+08  0.5            7905000        0              0              0              0
Averages over the last 751 of 1501 rows, steps 15955000 to 16105000:
Temp Press PotEng Density KinEng TotEng Lx Ly Lz Xlo Xhi Ylo Yhi Zlo Zhi Volume Dt
309.596 0.965926 -2.48124e+07 0.590348 921.924 -2.48115e+07 967.487 967.487 967.487 2016.26 2983.74 2016.26 2983.74 2016.26 2983.74 9.05604e+08 0.5
Loop time of 28.8584 on 4 procs for 300000 steps with 1000 atoms

# run_style
run_style verlet

# write restart
write_restart ./pgnpmf/500500/equpmf23.res
System init for write_restart ...
Generated 0 of 1 mixed pair_coeff terms from geometric mixing rule
