LAMMPS (23 Jun 2022 - Update 1)
# Read restart
read_restart ./pgnpmf/500500/equpmf29.res
Reading restart file ...
  restart file = 23 Jun 2022, LAMMPS = 23 Jun 2022
  restoring atom style atomic from restart
  orthogonal box = (2063.3498 2063.3498 2063.3498) to (2936.6502 2936.6502 2936.6502)
  restoring pair style table from restart
  1000 atoms
  read_restart CPU = 0.013 seconds

# Settings

pair_style table spline 9941

pair_coeff 1 1 ./pgnpmf/N20.txt DE_GNP 75.6
pair_coeff 2 2 ./pgnpmf/N100.txt DE_GNP 115.92
pair_coeff 1 2 ./pgnpmf/mixed_potential.txt DE_GNP 95.66

#Neigh_list Calc Frequency

neigh_modify delay 0 every 1 check yes

# Saving Frequency (50 frames)

variable ts_save equal 5000

# Dump
#dump_modify 1 first no sort id
#dump 2 all cfg 50000 ./equilibration/trajectory/ovito/dumpgen.tens_*.cfg mass type xs ys zs fx fy fz

# thermo_style
thermo_style custom step temp press pe density ke etotal lx ly lz xlo xhi ylo yhi zlo zhi vol dt time cpu tpcpu spcpu cpuremain

# run info
timestep 0.5
thermo 200

# fix

fix 1 all momentum 1000 linear 1 1 1 angular
variable T equal 300
fix 2 all nvt temp 300 370000 100.0

run 100000
Generated 0 of 1 mixed pair_coeff terms from geometric mixing rule
Unused restart file global fix info:
  fix style: npt, fix ID: 5
  update every 1 steps, delay 0 steps, check yes
Step          Temp          Press          PotEng        Density         KinEng         TotEng           Lx             Ly             Lz            Xlo            Xhi            Ylo            Yhi            Zlo            Zhi           Volume           Dt            Time           CPU           T/CPU          S/CPU         CPULeft
20305000   308.17746     -1.7875424     -27595228       0.80268988     917.69987     -27594310       873.30045      873.30045      873.30045      2063.3498      2936.6502      2063.3498      2936.6502      2063.3498      2936.6502      6.6602579e+08  0.5            10155000       0              0              0              0
Averages over the last 251 of 501 rows, steps 20355000 to 20405000:
Temp Press PotEng Density KinEng TotEng Lx Ly Lz Xlo Xhi Ylo Yhi Zlo Zhi Volume Dt
277197 88.5842 -2.71305e+07 0.80269 825446 -2.6305e+07 873.3 873.3 873.3 2063.35 2936.65 2063.35 2936.65 2063.35 2936.65 6.66026e+08 0.5
Loop time of 8.57818 on 4 procs for 100000 steps with 1000 atoms

unfix 2

fix 3 all nvt temp 370000 370000 $(100.0*dt) #iso 1.0 1.0 $(1000.0*dt)
fix 3 all nvt temp 370000 370000 50

run 200000
Generated 0 of 1 mixed pair_coeff terms from geometric mixing rule
Step          Temp          Press          PotEng        Density         KinEng         TotEng           Lx             Ly             Lz            Xlo            Xhi            Ylo            Yhi            Zlo            Zhi           Volume           Dt            Time           CPU           T/CPU          S/CPU         CPULeft
20405000   362382.19      138.55458     -26718831       0.80268988     1079112.3     -25639719       873.30045      873.30045      873.30045      2063.3498      2936.6502      2063.3498      2936.6502      2063.3498      2936.6502      6.6602579e+08  0.5            10205000       0              0              0              0
Averages over the last 501 of 1001 rows, steps 20505000 to 20605000:
Temp Press PotEng Density KinEng TotEng Lx Ly Lz Xlo Xhi Ylo Yhi Zlo Zhi Volume Dt
369985 46.6265 -2.57145e+07 0.80269 1.10175e+06 -2.46128e+07 873.3 873.3 873.3 2063.35 2936.65 2063.35 2936.65 2063.35 2936.65 6.66026e+08 0.5
Loop time of 17.2191 on 4 procs for 200000 steps with 1000 atoms

unfix 3

fix 4 all nvt temp 370000 300 100.0

run 100000
Generated 0 of 1 mixed pair_coeff terms from geometric mixing rule
Step          Temp          Press          PotEng        Density         KinEng         TotEng           Lx             Ly             Lz            Xlo            Xhi            Ylo            Yhi            Zlo            Zhi           Volume           Dt            Time           CPU           T/CPU          S/CPU         CPULeft
20605000   381145.57      53.596184     -25819590       0.80268988     1134986.4     -24684604       873.30045      873.30045      873.30045      2063.3498      2936.6502      2063.3498      2936.6502      2063.3498      2936.6502      6.6602579e+08  0.5            10305000       0              0              0              0
Averages over the last 251 of 501 rows, steps 20655000 to 20705000:
Temp Press PotEng Density KinEng TotEng Lx Ly Lz Xlo Xhi Ylo Yhi Zlo Zhi Volume Dt
93116.6 -201.588 -2.65466e+07 0.80269 277285 -2.62693e+07 873.3 873.3 873.3 2063.35 2936.65 2063.35 2936.65 2063.35 2936.65 6.66026e+08 0.5
Loop time of 8.24468 on 4 procs for 100000 steps with 1000 atoms

unfix 4

fix 5 all npt temp 300 300 $(100.0*dt) iso 1.0 1.0 $(1000.0*dt)
fix 5 all npt temp 300 300 50 iso 1.0 1.0 $(1000.0*dt)
fix 5 all npt temp 300 300 50 iso 1.0 1.0 500

run 300000
Generated 0 of 1 mixed pair_coeff terms from geometric mixing rule
Step          Temp          Press          PotEng        Density         KinEng         TotEng           Lx             Ly             Lz            Xlo            Xhi            Ylo            Yhi            Zlo            Zhi           Volume           Dt            Time           CPU           T/CPU          S/CPU         CPULeft
20705000   1367.3798     -246.59224     -27058294       0.80268988     4071.8235     -27054222       873.30045      873.30045      873.30045      2063.3498      2936.6502      2063.3498      2936.6502      2063.3498      2936.6502      6.6602579e+08  0.5            10355000       0              0              0              0
Averages over the last 751 of 1501 rows, steps 20855000 to 21005000:
Temp Press PotEng Density KinEng TotEng Lx Ly Lz Xlo Xhi Ylo Yhi Zlo Zhi Volume Dt
310.751 0.961909 -2.76174e+07 0.835475 925.364 -2.76165e+07 861.727 861.727 861.727 2069.14 2930.86 2069.14 2930.86 2069.14 2930.86 6.39897e+08 0.5
Loop time of 30.6808 on 4 procs for 300000 steps with 1000 atoms

# run_style
run_style verlet

# write restart
write_restart ./pgnpmf/500500/equpmf30.res
System init for write_restart ...
Generated 0 of 1 mixed pair_coeff terms from geometric mixing rule
