LAMMPS (23 Jun 2022 - Update 1)
# Read restart
read_restart ./pgnpmf/500500/equpmf57.res
Reading restart file ...
  restart file = 23 Jun 2022, LAMMPS = 23 Jun 2022
  restoring atom style atomic from restart
  orthogonal box = (2174.0845 2174.0845 2174.0845) to (2825.9155 2825.9155 2825.9155)
  restoring pair style table from restart
  1000 atoms
  read_restart CPU = 0.022 seconds

# Settings

pair_style table spline 9941

pair_coeff 1 1 ./pgnpmf/N20.txt DE_GNP 75.6
pair_coeff 2 2 ./pgnpmf/N100.txt DE_GNP 115.92
pair_coeff 1 2 ./pgnpmf/mixed_potential.txt DE_GNP 95.66

#Neigh_list Calc Frequency

neigh_modify delay 0 every 1 check yes

# Saving Frequency (50 frames)

variable ts_save equal 5000

# Dump
#dump_modify 1 first no sort id
#dump 2 all cfg 50000 ./equilibration/trajectory/ovito/dumpgen.tens_*.cfg mass type xs ys zs fx fy fz

# thermo_style
thermo_style custom step temp press pe density ke etotal lx ly lz xlo xhi ylo yhi zlo zhi vol dt time cpu tpcpu spcpu cpuremain

# run info
timestep 0.5
thermo 200

# fix

fix 1 all momentum 1000 linear 1 1 1 angular
variable T equal 300
fix 2 all nvt temp 300 370000 100.0

run 100000
Generated 0 of 1 mixed pair_coeff terms from geometric mixing rule
Unused restart file global fix info:
  fix style: npt, fix ID: 5
  update every 1 steps, delay 0 steps, check yes
Step          Temp          Press          PotEng        Density         KinEng         TotEng           Lx             Ly             Lz            Xlo            Xhi            Ylo            Yhi            Zlo            Zhi           Volume           Dt            Time           CPU           T/CPU          S/CPU         CPULeft
39905000   292.7446       9.8390982     -33244749       1.9303406      871.74342     -33243877       651.83093      651.83093      651.83093      2174.0845      2825.9155      2174.0845      2825.9155      2174.0845      2825.9155      2.7695224e+08  0.5            19955000       0              0              0              0
Averages over the last 251 of 501 rows, steps 39955000 to 40005000:
Temp Press PotEng Density KinEng TotEng Lx Ly Lz Xlo Xhi Ylo Yhi Zlo Zhi Volume Dt
277501 2413.61 -3.25515e+07 1.93034 826350 -3.17251e+07 651.831 651.831 651.831 2174.08 2825.92 2174.08 2825.92 2174.08 2825.92 2.76952e+08 0.5
Loop time of 8.83008 on 4 procs for 100000 steps with 1000 atoms

unfix 2

fix 3 all nvt temp 370000 370000 $(100.0*dt) #iso 1.0 1.0 $(1000.0*dt)
fix 3 all nvt temp 370000 370000 50

run 200000
Generated 0 of 1 mixed pair_coeff terms from geometric mixing rule
Step          Temp          Press          PotEng        Density         KinEng         TotEng           Lx             Ly             Lz            Xlo            Xhi            Ylo            Yhi            Zlo            Zhi           Volume           Dt            Time           CPU           T/CPU          S/CPU         CPULeft
40005000   368519.64      2906.4175     -32206977       1.9303406      1097388.5     -31109589       651.83093      651.83093      651.83093      2174.0845      2825.9155      2174.0845      2825.9155      2174.0845      2825.9155      2.7695224e+08  0.5            20005000       0              0              0              0
Averages over the last 501 of 1001 rows, steps 40105000 to 40205000:
Temp Press PotEng Density KinEng TotEng Lx Ly Lz Xlo Xhi Ylo Yhi Zlo Zhi Volume Dt
369945 2816.61 -3.22413e+07 1.93034 1.10163e+06 -3.11397e+07 651.831 651.831 651.831 2174.08 2825.92 2174.08 2825.92 2174.08 2825.92 2.76952e+08 0.5
Loop time of 17.4704 on 4 procs for 200000 steps with 1000 atoms

unfix 3

fix 4 all nvt temp 370000 300 100.0

run 100000
Generated 0 of 1 mixed pair_coeff terms from geometric mixing rule
Step          Temp          Press          PotEng        Density         KinEng         TotEng           Lx             Ly             Lz            Xlo            Xhi            Ylo            Yhi            Zlo            Zhi           Volume           Dt            Time           CPU           T/CPU          S/CPU         CPULeft
40205000   368531.41      2768.5454     -32235329       1.9303406      1097423.6     -31137905       651.83093      651.83093      651.83093      2174.0845      2825.9155      2174.0845      2825.9155      2174.0845      2825.9155      2.7695224e+08  0.5            20105000       0              0              0              0
Averages over the last 251 of 501 rows, steps 40255000 to 40305000:
Temp Press PotEng Density KinEng TotEng Lx Ly Lz Xlo Xhi Ylo Yhi Zlo Zhi Volume Dt
93144.9 740.968 -3.29741e+07 1.93034 277370 -3.26967e+07 651.831 651.831 651.831 2174.08 2825.92 2174.08 2825.92 2174.08 2825.92 2.76952e+08 0.5
Loop time of 8.70972 on 4 procs for 100000 steps with 1000 atoms

unfix 4

fix 5 all npt temp 300 300 $(100.0*dt) iso 1.0 1.0 $(1000.0*dt)
fix 5 all npt temp 300 300 50 iso 1.0 1.0 $(1000.0*dt)
fix 5 all npt temp 300 300 50 iso 1.0 1.0 500

run 300000
Generated 0 of 1 mixed pair_coeff terms from geometric mixing rule
Step          Temp          Press          PotEng        Density         KinEng         TotEng           Lx             Ly             Lz            Xlo            Xhi            Ylo            Yhi            Zlo            Zhi           Volume           Dt            Time           CPU           T/CPU          S/CPU         CPULeft
40305000   1394.6472      38.372349     -33153824       1.9303406      4153.0212     -33149671       651.83093      651.83093      651.83093      2174.0845      2825.9155      2174.0845      2825.9155      2174.0845      2825.9155      2.7695224e+08  0.5            20155000       0              0              0              0
Averages over the last 751 of 1501 rows, steps 40455000 to 40605000:
Temp Press PotEng Density KinEng TotEng Lx Ly Lz Xlo Xhi Ylo Yhi Zlo Zhi Volume Dt
300.097 1.05874 -3.3304e+07 1.93229 893.637 -3.33031e+07 651.611 651.611 651.611 2174.19 2825.81 2174.19 2825.81 2174.19 2825.81 2.76672e+08 0.5
Loop time of 30.8774 on 4 procs for 300000 steps with 1000 atoms

# run_style
run_style verlet

# write restart
write_restart ./pgnpmf/500500/equpmf58.res
System init for write_restart ...
Generated 0 of 1 mixed pair_coeff terms from geometric mixing rule
