LAMMPS (23 Jun 2022 - Update 1)
# Read restart
read_restart ./pgnpmf/500500/equpmf55.res
Reading restart file ...
  restart file = 23 Jun 2022, LAMMPS = 23 Jun 2022
  restoring atom style atomic from restart
  orthogonal box = (2174.0582 2174.0582 2174.0582) to (2825.9418 2825.9418 2825.9418)
  restoring pair style table from restart
  1000 atoms
  read_restart CPU = 0.054 seconds

# Settings

pair_style table spline 9941

pair_coeff 1 1 ./pgnpmf/N20.txt DE_GNP 75.6
pair_coeff 2 2 ./pgnpmf/N100.txt DE_GNP 115.92
pair_coeff 1 2 ./pgnpmf/mixed_potential.txt DE_GNP 95.66

#Neigh_list Calc Frequency

neigh_modify delay 0 every 1 check yes

# Saving Frequency (50 frames)

variable ts_save equal 5000

# Dump
#dump_modify 1 first no sort id
#dump 2 all cfg 50000 ./equilibration/trajectory/ovito/dumpgen.tens_*.cfg mass type xs ys zs fx fy fz

# thermo_style
thermo_style custom step temp press pe density ke etotal lx ly lz xlo xhi ylo yhi zlo zhi vol dt time cpu tpcpu spcpu cpuremain

# run info
timestep 0.5
thermo 200

# fix

fix 1 all momentum 1000 linear 1 1 1 angular
variable T equal 300
fix 2 all nvt temp 300 370000 100.0

run 100000
Generated 0 of 1 mixed pair_coeff terms from geometric mixing rule
Unused restart file global fix info:
  fix style: npt, fix ID: 5
  update every 1 steps, delay 0 steps, check yes
Step          Temp          Press          PotEng        Density         KinEng         TotEng           Lx             Ly             Lz            Xlo            Xhi            Ylo            Yhi            Zlo            Zhi           Volume           Dt            Time           CPU           T/CPU          S/CPU         CPULeft
38505000   294.40343     -6.7326849     -33324800       1.9298723      876.68314     -33323923       651.88365      651.88365      651.88365      2174.0582      2825.9418      2174.0582      2825.9418      2174.0582      2825.9418      2.7701945e+08  0.5            19255000       0              0              0              0
Averages over the last 251 of 501 rows, steps 38555000 to 38605000:
Temp Press PotEng Density KinEng TotEng Lx Ly Lz Xlo Xhi Ylo Yhi Zlo Zhi Volume Dt
277285 2402.36 -3.26316e+07 1.92987 825706 -3.18059e+07 651.884 651.884 651.884 2174.06 2825.94 2174.06 2825.94 2174.06 2825.94 2.77019e+08 0.5
Loop time of 8.77626 on 4 procs for 100000 steps with 1000 atoms

unfix 2

fix 3 all nvt temp 370000 370000 $(100.0*dt) #iso 1.0 1.0 $(1000.0*dt)
fix 3 all nvt temp 370000 370000 50

run 200000
Generated 0 of 1 mixed pair_coeff terms from geometric mixing rule
Step          Temp          Press          PotEng        Density         KinEng         TotEng           Lx             Ly             Lz            Xlo            Xhi            Ylo            Yhi            Zlo            Zhi           Volume           Dt            Time           CPU           T/CPU          S/CPU         CPULeft
38605000   359074.36      2844.1251     -32373370       1.9298723      1069262.1     -31304108       651.88365      651.88365      651.88365      2174.0582      2825.9418      2174.0582      2825.9418      2174.0582      2825.9418      2.7701945e+08  0.5            19305000       0              0              0              0
Averages over the last 501 of 1001 rows, steps 38705000 to 38805000:
Temp Press PotEng Density KinEng TotEng Lx Ly Lz Xlo Xhi Ylo Yhi Zlo Zhi Volume Dt
369904 2813.95 -3.22243e+07 1.92987 1.10151e+06 -3.11228e+07 651.884 651.884 651.884 2174.06 2825.94 2174.06 2825.94 2174.06 2825.94 2.77019e+08 0.5
Loop time of 17.6316 on 4 procs for 200000 steps with 1000 atoms

unfix 3

fix 4 all nvt temp 370000 300 100.0

run 100000
Generated 0 of 1 mixed pair_coeff terms from geometric mixing rule
Step          Temp          Press          PotEng        Density         KinEng         TotEng           Lx             Ly             Lz            Xlo            Xhi            Ylo            Yhi            Zlo            Zhi           Volume           Dt            Time           CPU           T/CPU          S/CPU         CPULeft
38805000   357251.49      2820.9073     -32261822       1.9298723      1063833.9     -31197988       651.88365      651.88365      651.88365      2174.0582      2825.9418      2174.0582      2825.9418      2174.0582      2825.9418      2.7701945e+08  0.5            19405000       0              0              0              0
Averages over the last 251 of 501 rows, steps 38855000 to 38905000:
Temp Press PotEng Density KinEng TotEng Lx Ly Lz Xlo Xhi Ylo Yhi Zlo Zhi Volume Dt
92927 771.82 -3.30147e+07 1.92987 276721 -3.2738e+07 651.884 651.884 651.884 2174.06 2825.94 2174.06 2825.94 2174.06 2825.94 2.77019e+08 0.5
Loop time of 8.76176 on 4 procs for 100000 steps with 1000 atoms

unfix 4

fix 5 all npt temp 300 300 $(100.0*dt) iso 1.0 1.0 $(1000.0*dt)
fix 5 all npt temp 300 300 50 iso 1.0 1.0 $(1000.0*dt)
fix 5 all npt temp 300 300 50 iso 1.0 1.0 500

run 300000
Generated 0 of 1 mixed pair_coeff terms from geometric mixing rule
Step          Temp          Press          PotEng        Density         KinEng         TotEng           Lx             Ly             Lz            Xlo            Xhi            Ylo            Yhi            Zlo            Zhi           Volume           Dt            Time           CPU           T/CPU          S/CPU         CPULeft
38905000   1379.8183      90.534797     -33261613       1.9298723      4108.8633     -33257504       651.88365      651.88365      651.88365      2174.0582      2825.9418      2174.0582      2825.9418      2174.0582      2825.9418      2.7701945e+08  0.5            19455000       0              0              0              0
Averages over the last 751 of 1501 rows, steps 39055000 to 39205000:
Temp Press PotEng Density KinEng TotEng Lx Ly Lz Xlo Xhi Ylo Yhi Zlo Zhi Volume Dt
300.361 0.802733 -3.33449e+07 1.92984 894.424 -3.3344e+07 651.888 651.888 651.888 2174.06 2825.94 2174.06 2825.94 2174.06 2825.94 2.77024e+08 0.5
Loop time of 30.9649 on 4 procs for 300000 steps with 1000 atoms

# run_style
run_style verlet

# write restart
write_restart ./pgnpmf/500500/equpmf56.res
System init for write_restart ...
Generated 0 of 1 mixed pair_coeff terms from geometric mixing rule
