LAMMPS (23 Jun 2022 - Update 1)
# Read restart
read_restart ./pgnpmf/500500/equpmf40.res
Reading restart file ...
  restart file = 23 Jun 2022, LAMMPS = 23 Jun 2022
  restoring atom style atomic from restart
  orthogonal box = (2139.2862 2139.2862 2139.2862) to (2860.7138 2860.7138 2860.7138)
  restoring pair style table from restart
  1000 atoms
  read_restart CPU = 0.013 seconds

# Settings

pair_style table spline 9941

pair_coeff 1 1 ./pgnpmf/N20.txt DE_GNP 75.6
pair_coeff 2 2 ./pgnpmf/N100.txt DE_GNP 115.92
pair_coeff 1 2 ./pgnpmf/mixed_potential.txt DE_GNP 95.66

#Neigh_list Calc Frequency

neigh_modify delay 0 every 1 check yes

# Saving Frequency (50 frames)

variable ts_save equal 5000

# Dump
#dump_modify 1 first no sort id
#dump 2 all cfg 50000 ./equilibration/trajectory/ovito/dumpgen.tens_*.cfg mass type xs ys zs fx fy fz

# thermo_style
thermo_style custom step temp press pe density ke etotal lx ly lz xlo xhi ylo yhi zlo zhi vol dt time cpu tpcpu spcpu cpuremain

# run info
timestep 0.5
thermo 200

# fix

fix 1 all momentum 1000 linear 1 1 1 angular
variable T equal 300
fix 2 all nvt temp 300 370000 100.0

run 100000
Generated 0 of 1 mixed pair_coeff terms from geometric mixing rule
Unused restart file global fix info:
  fix style: npt, fix ID: 5
  update every 1 steps, delay 0 steps, check yes
Step          Temp          Press          PotEng        Density         KinEng         TotEng           Lx             Ly             Lz            Xlo            Xhi            Ylo            Yhi            Zlo            Zhi           Volume           Dt            Time           CPU           T/CPU          S/CPU         CPULeft
28005000   308.70903      2.5511374     -30136155       1.4238376      919.28277     -30135236       721.42767      721.42767      721.42767      2139.2862      2860.7138      2139.2862      2860.7138      2139.2862      2860.7138      3.7547272e+08  0.5            14005000       0              0              0              0
Averages over the last 251 of 501 rows, steps 28055000 to 28105000:
Temp Press PotEng Density KinEng TotEng Lx Ly Lz Xlo Xhi Ylo Yhi Zlo Zhi Volume Dt
277746 272.794 -2.97479e+07 1.42384 827079 -2.89208e+07 721.428 721.428 721.428 2139.29 2860.71 2139.29 2860.71 2139.29 2860.71 3.75473e+08 0.5
Loop time of 8.81766 on 4 procs for 100000 steps with 1000 atoms

unfix 2

fix 3 all nvt temp 370000 370000 $(100.0*dt) #iso 1.0 1.0 $(1000.0*dt)
fix 3 all nvt temp 370000 370000 50

run 200000
Generated 0 of 1 mixed pair_coeff terms from geometric mixing rule
Step          Temp          Press          PotEng        Density         KinEng         TotEng           Lx             Ly             Lz            Xlo            Xhi            Ylo            Yhi            Zlo            Zhi           Volume           Dt            Time           CPU           T/CPU          S/CPU         CPULeft
28105000   378811.62      301.99881     -29443269       1.4238376      1128036.3     -28315233       721.42767      721.42767      721.42767      2139.2862      2860.7138      2139.2862      2860.7138      2139.2862      2860.7138      3.7547272e+08  0.5            14055000       0              0              0              0
Averages over the last 501 of 1001 rows, steps 28205000 to 28305000:
Temp Press PotEng Density KinEng TotEng Lx Ly Lz Xlo Xhi Ylo Yhi Zlo Zhi Volume Dt
370182 159.501 -2.85074e+07 1.42384 1.10234e+06 -2.7405e+07 721.428 721.428 721.428 2139.29 2860.71 2139.29 2860.71 2139.29 2860.71 3.75473e+08 0.5
Loop time of 17.1977 on 4 procs for 200000 steps with 1000 atoms

unfix 3

fix 4 all nvt temp 370000 300 100.0

run 100000
Generated 0 of 1 mixed pair_coeff terms from geometric mixing rule
Step          Temp          Press          PotEng        Density         KinEng         TotEng           Lx             Ly             Lz            Xlo            Xhi            Ylo            Yhi            Zlo            Zhi           Volume           Dt            Time           CPU           T/CPU          S/CPU         CPULeft
28305000   377076.88      155.70529     -28514958       1.4238376      1122870.6     -27392088       721.42767      721.42767      721.42767      2139.2862      2860.7138      2139.2862      2860.7138      2139.2862      2860.7138      3.7547272e+08  0.5            14155000       0              0              0              0
Averages over the last 251 of 501 rows, steps 28355000 to 28405000:
Temp Press PotEng Density KinEng TotEng Lx Ly Lz Xlo Xhi Ylo Yhi Zlo Zhi Volume Dt
92968.2 -635.412 -2.93005e+07 1.42384 276843 -2.90237e+07 721.428 721.428 721.428 2139.29 2860.71 2139.29 2860.71 2139.29 2860.71 3.75473e+08 0.5
Loop time of 8.90898 on 4 procs for 100000 steps with 1000 atoms

unfix 4

fix 5 all npt temp 300 300 $(100.0*dt) iso 1.0 1.0 $(1000.0*dt)
fix 5 all npt temp 300 300 50 iso 1.0 1.0 $(1000.0*dt)
fix 5 all npt temp 300 300 50 iso 1.0 1.0 500

run 300000
Generated 0 of 1 mixed pair_coeff terms from geometric mixing rule
Step          Temp          Press          PotEng        Density         KinEng         TotEng           Lx             Ly             Lz            Xlo            Xhi            Ylo            Yhi            Zlo            Zhi           Volume           Dt            Time           CPU           T/CPU          S/CPU         CPULeft
28405000   1369.0486     -909.94813     -29661712       1.4238376      4076.7929     -29657635       721.42767      721.42767      721.42767      2139.2862      2860.7138      2139.2862      2860.7138      2139.2862      2860.7138      3.7547272e+08  0.5            14205000       0              0              0              0
Averages over the last 751 of 1501 rows, steps 28555000 to 28705000:
Temp Press PotEng Density KinEng TotEng Lx Ly Lz Xlo Xhi Ylo Yhi Zlo Zhi Volume Dt
311.359 0.980079 -3.05385e+07 1.5093 927.173 -3.05376e+07 707.548 707.548 707.548 2146.23 2853.77 2146.23 2853.77 2146.23 2853.77 3.54217e+08 0.5
Loop time of 31.3186 on 4 procs for 300000 steps with 1000 atoms

# run_style
run_style verlet

# write restart
write_restart ./pgnpmf/500500/equpmf41.res
System init for write_restart ...
Generated 0 of 1 mixed pair_coeff terms from geometric mixing rule
