LAMMPS (23 Jun 2022 - Update 1)
# Read restart
read_restart ./pgnpmf/500500/equpmf18.res
Reading restart file ...
  restart file = 23 Jun 2022, LAMMPS = 23 Jun 2022
  restoring atom style atomic from restart
  orthogonal box = (1972.6717 1972.6717 1972.6717) to (3027.3283 3027.3283 3027.3283)
  restoring pair style table from restart
  1000 atoms
  read_restart CPU = 0.014 seconds

# Settings

pair_style table spline 9941

pair_coeff 1 1 ./pgnpmf/N20.txt DE_GNP 75.6
pair_coeff 2 2 ./pgnpmf/N100.txt DE_GNP 115.92
pair_coeff 1 2 ./pgnpmf/mixed_potential.txt DE_GNP 95.66

#Neigh_list Calc Frequency

neigh_modify delay 0 every 1 check yes

# Saving Frequency (50 frames)

variable ts_save equal 5000

# Dump
#dump_modify 1 first no sort id
#dump 2 all cfg 50000 ./equilibration/trajectory/ovito/dumpgen.tens_*.cfg mass type xs ys zs fx fy fz

# thermo_style
thermo_style custom step temp press pe density ke etotal lx ly lz xlo xhi ylo yhi zlo zhi vol dt time cpu tpcpu spcpu cpuremain

# run info
timestep 0.5
thermo 200

# fix

fix 1 all momentum 1000 linear 1 1 1 angular
variable T equal 300
fix 2 all nvt temp 300 370000 100.0

run 100000
Generated 0 of 1 mixed pair_coeff terms from geometric mixing rule
Unused restart file global fix info:
  fix style: npt, fix ID: 5
  update every 1 steps, delay 0 steps, check yes
Step          Temp          Press          PotEng        Density         KinEng         TotEng           Lx             Ly             Lz            Xlo            Xhi            Ylo            Yhi            Zlo            Zhi           Volume           Dt            Time           CPU           T/CPU          S/CPU         CPULeft
12605000   309.60492      1.5981413     -21531608       0.45572794     921.95057     -21530686       1054.6566      1054.6566      1054.6566      1972.6717      3027.3283      1972.6717      3027.3283      1972.6717      3027.3283      1.173095e+09   0.5            6305000        0              0              0              0
Averages over the last 251 of 501 rows, steps 12655000 to 12705000:
Temp Press PotEng Density KinEng TotEng Lx Ly Lz Xlo Xhi Ylo Yhi Zlo Zhi Volume Dt
277229 21.4227 -2.14287e+07 0.455728 825541 -2.06032e+07 1054.66 1054.66 1054.66 1972.67 3027.33 1972.67 3027.33 1972.67 3027.33 1.1731e+09 0.5
Loop time of 7.2691 on 4 procs for 100000 steps with 1000 atoms

unfix 2

fix 3 all nvt temp 370000 370000 $(100.0*dt) #iso 1.0 1.0 $(1000.0*dt)
fix 3 all nvt temp 370000 370000 50

run 200000
Generated 0 of 1 mixed pair_coeff terms from geometric mixing rule
Step          Temp          Press          PotEng        Density         KinEng         TotEng           Lx             Ly             Lz            Xlo            Xhi            Ylo            Yhi            Zlo            Zhi           Volume           Dt            Time           CPU           T/CPU          S/CPU         CPULeft
12705000   357143         6.6597341     -21053666       0.45572794     1063510.9     -19990155       1054.6566      1054.6566      1054.6566      1972.6717      3027.3283      1972.6717      3027.3283      1972.6717      3027.3283      1.173095e+09   0.5            6355000        0              0              0              0
Averages over the last 501 of 1001 rows, steps 12805000 to 12905000:
Temp Press PotEng Density KinEng TotEng Lx Ly Lz Xlo Xhi Ylo Yhi Zlo Zhi Volume Dt
370199 19.2408 -2.03025e+07 0.455728 1.10239e+06 -1.92001e+07 1054.66 1054.66 1054.66 1972.67 3027.33 1972.67 3027.33 1972.67 3027.33 1.1731e+09 0.5
Loop time of 14.3026 on 4 procs for 200000 steps with 1000 atoms

unfix 3

fix 4 all nvt temp 370000 300 100.0

run 100000
Generated 0 of 1 mixed pair_coeff terms from geometric mixing rule
Step          Temp          Press          PotEng        Density         KinEng         TotEng           Lx             Ly             Lz            Xlo            Xhi            Ylo            Yhi            Zlo            Zhi           Volume           Dt            Time           CPU           T/CPU          S/CPU         CPULeft
12905000   362330.4       48.442073     -20072602       0.45572794     1078958       -18993644       1054.6566      1054.6566      1054.6566      1972.6717      3027.3283      1972.6717      3027.3283      1972.6717      3027.3283      1.173095e+09   0.5            6455000        0              0              0              0
Averages over the last 251 of 501 rows, steps 12955000 to 13005000:
Temp Press PotEng Density KinEng TotEng Lx Ly Lz Xlo Xhi Ylo Yhi Zlo Zhi Volume Dt
93042.6 -65.6566 -2.11672e+07 0.455728 277065 -2.08902e+07 1054.66 1054.66 1054.66 1972.67 3027.33 1972.67 3027.33 1972.67 3027.33 1.1731e+09 0.5
Loop time of 7.15769 on 4 procs for 100000 steps with 1000 atoms

unfix 4

fix 5 all npt temp 300 300 $(100.0*dt) iso 1.0 1.0 $(1000.0*dt)
fix 5 all npt temp 300 300 50 iso 1.0 1.0 $(1000.0*dt)
fix 5 all npt temp 300 300 50 iso 1.0 1.0 500

run 300000
Generated 0 of 1 mixed pair_coeff terms from geometric mixing rule
Step          Temp          Press          PotEng        Density         KinEng         TotEng           Lx             Ly             Lz            Xlo            Xhi            Ylo            Yhi            Zlo            Zhi           Volume           Dt            Time           CPU           T/CPU          S/CPU         CPULeft
13005000   1362.9591     -88.162567     -21650722       0.45572794     4058.6596     -21646664       1054.6566      1054.6566      1054.6566      1972.6717      3027.3283      1972.6717      3027.3283      1972.6717      3027.3283      1.173095e+09   0.5            6505000        0              0              0              0
Averages over the last 751 of 1501 rows, steps 13155000 to 13305000:
Temp Press PotEng Density KinEng TotEng Lx Ly Lz Xlo Xhi Ylo Yhi Zlo Zhi Volume Dt
310.882 1 -2.21132e+07 0.479645 925.755 -2.21123e+07 1036.83 1036.83 1036.83 1981.58 3018.42 1981.58 3018.42 1981.58 3018.42 1.11463e+09 0.5
Loop time of 26.9069 on 4 procs for 300000 steps with 1000 atoms

# run_style
run_style verlet

# write restart
write_restart ./pgnpmf/500500/equpmf19.res
System init for write_restart ...
Generated 0 of 1 mixed pair_coeff terms from geometric mixing rule
