LAMMPS (23 Jun 2022 - Update 1)
# Read restart
read_restart ./pgnpmf/010/equpmf91.res
Reading restart file ...
  restart file = 23 Jun 2022, LAMMPS = 23 Jun 2022
  restoring atom style atomic from restart
  orthogonal box = (1566.7151 1566.7151 1566.7151) to (2433.2849 2433.2849 2433.2849)
  restoring pair style table from restart
  1000 atoms
  read_restart CPU = 0.006 seconds

# Settings

pair_style table spline 9941

pair_coeff 1 1 ./pgnpmf/N20.txt DE_GNP 75.6
pair_coeff 2 2 ./pgnpmf/N100.txt DE_GNP 115.92
pair_coeff 1 2 ./pgnpmf/mixed_potential.txt DE_GNP 95.66

#Neigh_list Calc Frequency

neigh_modify delay 0 every 1 check yes

# Saving Frequency (50 frames)

variable ts_save equal 50000

variable nts equal 50000/0.1
variable medium equal 500000*3
variable long equal 500000*5

# Dump
#dump_modify 1 first no sort id
dump 2 all cfg 50000 ./pgnpmf/010/equilibration/trajectory/dumpequ.tens_*.cfg mass type xs ys zs fx fy fz
dump_modify 2 element N20 N100

# thermo_style
thermo_style custom step temp press pe density ke etotal lx ly lz xlo xhi ylo yhi zlo zhi vol dt time cpu tpcpu spcpu cpuremain

# run info
timestep 0.1
thermo 5000

# fix

fix 1 all momentum 1000 linear 1 1 1 angular
variable T equal 300
fix 2 all nvt temp 300 370000 100.0

run 500000
Generated 0 of 1 mixed pair_coeff terms from geometric mixing rule
Unused restart file global fix info:
  fix style: npt, fix ID: 5
  update every 1 steps, delay 0 steps, check yes
Step          Temp          Press          PotEng        Density         KinEng         TotEng           Lx             Ly             Lz            Xlo            Xhi            Ylo            Yhi            Zlo            Zhi           Volume           Dt            Time           CPU           T/CPU          S/CPU         CPULeft
107160000   311.67605     -1.8708776     -56550510       1.0769693      928.11806     -56549582       866.56981      866.56981      866.56981      1566.7151      2433.2849      1566.7151      2433.2849      1566.7151      2433.2849      6.5074473e+08  0.1            13610000       0              0              0              0
Averages over the last 51 of 101 rows, steps 107410000 to 107660000:
Temp Press PotEng Density KinEng TotEng Lx Ly Lz Xlo Xhi Ylo Yhi Zlo Zhi Volume Dt
277334 19.1198 -5.48853e+07 1.07697 825854 -5.40594e+07 866.57 866.57 866.57 1566.72 2433.28 1566.72 2433.28 1566.72 2433.28 6.50745e+08 0.1
Loop time of 38.6325 on 4 procs for 500000 steps with 1000 atoms

unfix 2

fix 3 all nvt temp 370000 370000 $(100.0*dt) #iso 1.0 1.0 $(1000.0*dt)
fix 3 all nvt temp 370000 370000 10

run 2500000
Generated 0 of 1 mixed pair_coeff terms from geometric mixing rule
Step          Temp          Press          PotEng        Density         KinEng         TotEng           Lx             Ly             Lz            Xlo            Xhi            Ylo            Yhi            Zlo            Zhi           Volume           Dt            Time           CPU           T/CPU          S/CPU         CPULeft
107660000   380745.82      216.24848     -54621914       1.0769693      1133796       -53488118       866.56981      866.56981      866.56981      1566.7151      2433.2849      1566.7151      2433.2849      1566.7151      2433.2849      6.5074473e+08  0.1            13660000       0              0              0              0
Averages over the last 251 of 501 rows, steps 108910000 to 110160000:
Temp Press PotEng Density KinEng TotEng Lx Ly Lz Xlo Xhi Ylo Yhi Zlo Zhi Volume Dt
371619 -72.4814 -5.42134e+07 1.07697 1.10662e+06 -5.31068e+07 866.57 866.57 866.57 1566.72 2433.28 1566.72 2433.28 1566.72 2433.28 6.50745e+08 0.1
Loop time of 187.922 on 4 procs for 2500000 steps with 1000 atoms

unfix 3

fix 4 all nvt temp 370000 300 100.0

run 500000
Generated 0 of 1 mixed pair_coeff terms from geometric mixing rule
Step          Temp          Press          PotEng        Density         KinEng         TotEng           Lx             Ly             Lz            Xlo            Xhi            Ylo            Yhi            Zlo            Zhi           Volume           Dt            Time           CPU           T/CPU          S/CPU         CPULeft
110160000   369535.04     -93.026831     -54125342       1.0769693      1100412.2     -53024929       866.56981      866.56981      866.56981      1566.7151      2433.2849      1566.7151      2433.2849      1566.7151      2433.2849      6.5074473e+08  0.1            13910000       0              0              0              0
Averages over the last 51 of 101 rows, steps 110410000 to 110660000:
Temp Press PotEng Density KinEng TotEng Lx Ly Lz Xlo Xhi Ylo Yhi Zlo Zhi Volume Dt
93697.4 -637.597 -5.55575e+07 1.07697 279015 -5.52785e+07 866.57 866.57 866.57 1566.72 2433.28 1566.72 2433.28 1566.72 2433.28 6.50745e+08 0.1
Loop time of 37.7785 on 4 procs for 500000 steps with 1000 atoms

unfix 4

fix 5 all npt temp 300 300 $(100.0*dt) iso 1.0 1.0 $(1000.0*dt)
fix 5 all npt temp 300 300 10 iso 1.0 1.0 $(1000.0*dt)
fix 5 all npt temp 300 300 10 iso 1.0 1.0 100

run 1500000
Generated 0 of 1 mixed pair_coeff terms from geometric mixing rule
Step          Temp          Press          PotEng        Density         KinEng         TotEng           Lx             Ly             Lz            Xlo            Xhi            Ylo            Yhi            Zlo            Zhi           Volume           Dt            Time           CPU           T/CPU          S/CPU         CPULeft
110660000   1359.0428     -719.66419     -56080194       1.0769693      4046.9974     -56076147       866.56981      866.56981      866.56981      1566.7151      2433.2849      1566.7151      2433.2849      1566.7151      2433.2849      6.5074473e+08  0.1            13960000       0              0              0              0
Averages over the last 151 of 301 rows, steps 111410000 to 112160000:
Temp Press PotEng Density KinEng TotEng Lx Ly Lz Xlo Xhi Ylo Yhi Zlo Zhi Volume Dt
299.18 0.86204 -5.70172e+07 1.132 890.908 -5.70163e+07 852.297 852.297 852.297 1573.85 2426.15 1573.85 2426.15 1573.85 2426.15 6.19119e+08 0.1
Loop time of 135.144 on 4 procs for 1500000 steps with 1000 atoms

# run_style
run_style verlet

# write restart
write_restart ./pgnpmf/010/equpmf92.res
System init for write_restart ...
Generated 0 of 1 mixed pair_coeff terms from geometric mixing rule
