LAMMPS (23 Jun 2022 - Update 1)
# Read restart
read_restart ./pgnpmf/010/equpmf36.res
Reading restart file ...
  restart file = 23 Jun 2022, LAMMPS = 23 Jun 2022
  restoring atom style atomic from restart
  orthogonal box = (1140.6637 1140.6637 1140.6637) to (2859.3363 2859.3363 2859.3363)
  restoring pair style table from restart
  1000 atoms
  read_restart CPU = 0.005 seconds

# Settings

pair_style table spline 9941

pair_coeff 1 1 ./pgnpmf/N20.txt DE_GNP 75.6
pair_coeff 2 2 ./pgnpmf/N100.txt DE_GNP 115.92
pair_coeff 1 2 ./pgnpmf/mixed_potential.txt DE_GNP 95.66

#Neigh_list Calc Frequency

neigh_modify delay 0 every 1 check yes

# Saving Frequency (50 frames)

variable ts_save equal 5000

variable nts equal 5000/0.5
variable medium equal 10000*3
variable long equal 10000*5

# Dump
#dump_modify 1 first no sort id
dump 2 all cfg 50000 ./pgnpmf/010/equilibration/trajectory/dumpequ.tens_*.cfg mass type xs ys zs fx fy fz
dump_modify 2 element N20 N100

# thermo_style
thermo_style custom step temp press pe density ke etotal lx ly lz xlo xhi ylo yhi zlo zhi vol dt time cpu tpcpu spcpu cpuremain

# run info
timestep 0.5
thermo 5000

# fix

fix 1 all momentum 1000 linear 1 1 1 angular
variable T equal 300
fix 2 all nvt temp 300 370000 100.0

run 10000
Generated 0 of 1 mixed pair_coeff terms from geometric mixing rule
Unused restart file global fix info:
  fix style: npt, fix ID: 5
  update every 1 steps, delay 0 steps, check yes
Step          Temp          Press          PotEng        Density         KinEng         TotEng           Lx             Ly             Lz            Xlo            Xhi            Ylo            Yhi            Zlo            Zhi           Volume           Dt            Time           CPU           T/CPU          S/CPU         CPULeft
3660000   366.37042      0.93784088    -40065202       0.13804941     1090.9885     -40064111       1718.6726      1718.6726      1718.6726      1140.6637      2859.3363      1140.6637      2859.3363      1140.6637      2859.3363      5.076676e+09   0.5            1860000        0              0              0              0
Loop time of 1.11224 on 4 procs for 10000 steps with 1000 atoms

unfix 2

fix 3 all nvt temp 370000 370000 $(100.0*dt) #iso 1.0 1.0 $(1000.0*dt)
fix 3 all nvt temp 370000 370000 50

run 50000
Generated 0 of 1 mixed pair_coeff terms from geometric mixing rule
Step          Temp          Press          PotEng        Density         KinEng         TotEng           Lx             Ly             Lz            Xlo            Xhi            Ylo            Yhi            Zlo            Zhi           Volume           Dt            Time           CPU           T/CPU          S/CPU         CPULeft
3670000   365898.59     -0.3014615     -40136058       0.13804941     1089583.5     -39046475       1718.6726      1718.6726      1718.6726      1140.6637      2859.3363      1140.6637      2859.3363      1140.6637      2859.3363      5.076676e+09   0.5            1865000        0              0              0              0
Averages over the last 6 of 11 rows, steps 3695000 to 3720000:
Temp Press PotEng Density KinEng TotEng Lx Ly Lz Xlo Xhi Ylo Yhi Zlo Zhi Volume Dt
367523 13.1761 -3.98342e+07 0.138049 1.09442e+06 -3.87398e+07 1718.67 1718.67 1718.67 1140.66 2859.34 1140.66 2859.34 1140.66 2859.34 5.07668e+09 0.5
Loop time of 5.69758 on 4 procs for 50000 steps with 1000 atoms

unfix 3

fix 4 all nvt temp 370000 300 100.0

run 10000
Generated 0 of 1 mixed pair_coeff terms from geometric mixing rule
Step          Temp          Press          PotEng        Density         KinEng         TotEng           Lx             Ly             Lz            Xlo            Xhi            Ylo            Yhi            Zlo            Zhi           Volume           Dt            Time           CPU           T/CPU          S/CPU         CPULeft
3720000   365006.39     -5.2769393     -39383404       0.13804941     1086926.7     -38296478       1718.6726      1718.6726      1718.6726      1140.6637      2859.3363      1140.6637      2859.3363      1140.6637      2859.3363      5.076676e+09   0.5            1890000        0              0              0              0
Loop time of 1.11477 on 4 procs for 10000 steps with 1000 atoms

unfix 4

fix 5 all npt temp 300 300 $(100.0*dt) iso 1.0 1.0 $(1000.0*dt)
fix 5 all npt temp 300 300 50 iso 1.0 1.0 $(1000.0*dt)
fix 5 all npt temp 300 300 50 iso 1.0 1.0 500

run 30000
Generated 0 of 1 mixed pair_coeff terms from geometric mixing rule
Step          Temp          Press          PotEng        Density         KinEng         TotEng           Lx             Ly             Lz            Xlo            Xhi            Ylo            Yhi            Zlo            Zhi           Volume           Dt            Time           CPU           T/CPU          S/CPU         CPULeft
3730000   9124.8322     -62.335555     -39493887       0.13804941     27172.192     -39466714       1718.6726      1718.6726      1718.6726      1140.6637      2859.3363      1140.6637      2859.3363      1140.6637      2859.3363      5.076676e+09   0.5            1895000        0              0              0              0
Loop time of 3.97994 on 4 procs for 30000 steps with 1000 atoms

# run_style
run_style verlet

# write restart
write_restart ./pgnpmf/010/equpmf37.res
System init for write_restart ...
Generated 0 of 1 mixed pair_coeff terms from geometric mixing rule
