LAMMPS (23 Jun 2022 - Update 1)
# Read restart
read_restart ./pgnpmf/010/equpmf79.res
Reading restart file ...
  restart file = 23 Jun 2022, LAMMPS = 23 Jun 2022
  restoring atom style atomic from restart
  orthogonal box = (1488.3714 1488.3714 1488.3714) to (2511.6286 2511.6286 2511.6286)
  restoring pair style table from restart
  1000 atoms
  read_restart CPU = 0.004 seconds

# Settings

pair_style table spline 9941

pair_coeff 1 1 ./pgnpmf/N20.txt DE_GNP 75.6
pair_coeff 2 2 ./pgnpmf/N100.txt DE_GNP 115.92
pair_coeff 1 2 ./pgnpmf/mixed_potential.txt DE_GNP 95.66

#Neigh_list Calc Frequency

neigh_modify delay 0 every 1 check yes

# Saving Frequency (50 frames)

variable ts_save equal 50000

variable nts equal 50000/0.1
variable medium equal 500000*3
variable long equal 500000*5

# Dump
#dump_modify 1 first no sort id
dump 2 all cfg 50000 ./pgnpmf/010/equilibration/trajectory/dumpequ.tens_*.cfg mass type xs ys zs fx fy fz
dump_modify 2 element N20 N100

# thermo_style
thermo_style custom step temp press pe density ke etotal lx ly lz xlo xhi ylo yhi zlo zhi vol dt time cpu tpcpu spcpu cpuremain

# run info
timestep 0.1
thermo 5000

# fix

fix 1 all momentum 1000 linear 1 1 1 angular
variable T equal 300
fix 2 all nvt temp 300 370000 100.0

run 500000
Generated 0 of 1 mixed pair_coeff terms from geometric mixing rule
Unused restart file global fix info:
  fix style: npt, fix ID: 5
  update every 1 steps, delay 0 steps, check yes
Step          Temp          Press          PotEng        Density         KinEng         TotEng           Lx             Ly             Lz            Xlo            Xhi            Ylo            Yhi            Zlo            Zhi           Volume           Dt            Time           CPU           T/CPU          S/CPU         CPULeft
47160000   292.51074      1.724874      -53106313       0.65412334     871.04703     -53105442       1023.2571      1023.2571      1023.2571      1488.3714      2511.6286      1488.3714      2511.6286      1488.3714      2511.6286      1.0714067e+09  0.1            7610000        0              0              0              0
Averages over the last 51 of 101 rows, steps 47410000 to 47660000:
Temp Press PotEng Density KinEng TotEng Lx Ly Lz Xlo Xhi Ylo Yhi Zlo Zhi Volume Dt
276959 6.586 -5.17024e+07 0.654123 824736 -5.08777e+07 1023.26 1023.26 1023.26 1488.37 2511.63 1488.37 2511.63 1488.37 2511.63 1.07141e+09 0.1
Loop time of 45.2034 on 4 procs for 500000 steps with 1000 atoms

unfix 2

fix 3 all nvt temp 370000 370000 $(100.0*dt) #iso 1.0 1.0 $(1000.0*dt)
fix 3 all nvt temp 370000 370000 10

run 2500000
Generated 0 of 1 mixed pair_coeff terms from geometric mixing rule
Step          Temp          Press          PotEng        Density         KinEng         TotEng           Lx             Ly             Lz            Xlo            Xhi            Ylo            Yhi            Zlo            Zhi           Volume           Dt            Time           CPU           T/CPU          S/CPU         CPULeft
47660000   379275.31     -10.248007     -50993712       0.65412334     1129417.1     -49864295       1023.2571      1023.2571      1023.2571      1488.3714      2511.6286      1488.3714      2511.6286      1488.3714      2511.6286      1.0714067e+09  0.1            7660000        0              0              0              0
Averages over the last 251 of 501 rows, steps 48910000 to 50160000:
Temp Press PotEng Density KinEng TotEng Lx Ly Lz Xlo Xhi Ylo Yhi Zlo Zhi Volume Dt
369848 -5.57852 -5.0119e+07 0.654123 1.10134e+06 -4.90176e+07 1023.26 1023.26 1023.26 1488.37 2511.63 1488.37 2511.63 1488.37 2511.63 1.07141e+09 0.1
Loop time of 215.202 on 4 procs for 2500000 steps with 1000 atoms

unfix 3

fix 4 all nvt temp 370000 300 100.0

run 500000
Generated 0 of 1 mixed pair_coeff terms from geometric mixing rule
Step          Temp          Press          PotEng        Density         KinEng         TotEng           Lx             Ly             Lz            Xlo            Xhi            Ylo            Yhi            Zlo            Zhi           Volume           Dt            Time           CPU           T/CPU          S/CPU         CPULeft
50160000   380382.88      24.951311     -50314843       0.65412334     1132715.3     -49182128       1023.2571      1023.2571      1023.2571      1488.3714      2511.6286      1488.3714      2511.6286      1488.3714      2511.6286      1.0714067e+09  0.1            7910000        0              0              0              0
Averages over the last 51 of 101 rows, steps 50410000 to 50660000:
Temp Press PotEng Density KinEng TotEng Lx Ly Lz Xlo Xhi Ylo Yhi Zlo Zhi Volume Dt
92943.3 -198.133 -5.18654e+07 0.654123 276769 -5.15886e+07 1023.26 1023.26 1023.26 1488.37 2511.63 1488.37 2511.63 1488.37 2511.63 1.07141e+09 0.1
Loop time of 44.6383 on 4 procs for 500000 steps with 1000 atoms

unfix 4

fix 5 all npt temp 300 300 $(100.0*dt) iso 1.0 1.0 $(1000.0*dt)
fix 5 all npt temp 300 300 10 iso 1.0 1.0 $(1000.0*dt)
fix 5 all npt temp 300 300 10 iso 1.0 1.0 100

run 1500000
Generated 0 of 1 mixed pair_coeff terms from geometric mixing rule
Step          Temp          Press          PotEng        Density         KinEng         TotEng           Lx             Ly             Lz            Xlo            Xhi            Ylo            Yhi            Zlo            Zhi           Volume           Dt            Time           CPU           T/CPU          S/CPU         CPULeft
50660000   1352.3363     -176.13577     -52511035       0.65412334     4027.0265     -52507008       1023.2571      1023.2571      1023.2571      1488.3714      2511.6286      1488.3714      2511.6286      1488.3714      2511.6286      1.0714067e+09  0.1            7960000        0              0              0              0
Averages over the last 151 of 301 rows, steps 51410000 to 52160000:
Temp Press PotEng Density KinEng TotEng Lx Ly Lz Xlo Xhi Ylo Yhi Zlo Zhi Volume Dt
299.197 1.11367 -5.29509e+07 0.67274 890.956 -5.29501e+07 1013.73 1013.73 1013.73 1493.13 2506.87 1493.13 2506.87 1493.13 2506.87 1.04177e+09 0.1
Loop time of 161.33 on 4 procs for 1500000 steps with 1000 atoms

# run_style
run_style verlet

# write restart
write_restart ./pgnpmf/010/equpmf80.res
System init for write_restart ...
Generated 0 of 1 mixed pair_coeff terms from geometric mixing rule
