LAMMPS (23 Jun 2022 - Update 1)
# Read restart
read_restart ./pgnpmf/010/equpmf88.res
Reading restart file ...
  restart file = 23 Jun 2022, LAMMPS = 23 Jun 2022
  restoring atom style atomic from restart
  orthogonal box = (1544.9893 1544.9893 1544.9893) to (2455.0107 2455.0107 2455.0107)
  restoring pair style table from restart
  1000 atoms
  read_restart CPU = 0.006 seconds

# Settings

pair_style table spline 9941

pair_coeff 1 1 ./pgnpmf/N20.txt DE_GNP 75.6
pair_coeff 2 2 ./pgnpmf/N100.txt DE_GNP 115.92
pair_coeff 1 2 ./pgnpmf/mixed_potential.txt DE_GNP 95.66

#Neigh_list Calc Frequency

neigh_modify delay 0 every 1 check yes

# Saving Frequency (50 frames)

variable ts_save equal 50000

variable nts equal 50000/0.1
variable medium equal 500000*3
variable long equal 500000*5

# Dump
#dump_modify 1 first no sort id
dump 2 all cfg 50000 ./pgnpmf/010/equilibration/trajectory/dumpequ.tens_*.cfg mass type xs ys zs fx fy fz
dump_modify 2 element N20 N100

# thermo_style
thermo_style custom step temp press pe density ke etotal lx ly lz xlo xhi ylo yhi zlo zhi vol dt time cpu tpcpu spcpu cpuremain

# run info
timestep 0.1
thermo 5000

# fix

fix 1 all momentum 1000 linear 1 1 1 angular
variable T equal 300
fix 2 all nvt temp 300 370000 100.0

run 500000
Generated 0 of 1 mixed pair_coeff terms from geometric mixing rule
Unused restart file global fix info:
  fix style: npt, fix ID: 5
  update every 1 steps, delay 0 steps, check yes
Step          Temp          Press          PotEng        Density         KinEng         TotEng           Lx             Ly             Lz            Xlo            Xhi            Ylo            Yhi            Zlo            Zhi           Volume           Dt            Time           CPU           T/CPU          S/CPU         CPULeft
92160000   298.47673     -0.052876314   -55179247       0.92994937     888.81273     -55178358       910.02131      910.02131      910.02131      1544.9893      2455.0107      1544.9893      2455.0107      1544.9893      2455.0107      7.5362394e+08  0.1            12110000       0              0              0              0
Averages over the last 51 of 101 rows, steps 92410000 to 92660000:
Temp Press PotEng Density KinEng TotEng Lx Ly Lz Xlo Xhi Ylo Yhi Zlo Zhi Volume Dt
277562 13.721 -5.3953e+07 0.929949 826532 -5.31265e+07 910.021 910.021 910.021 1544.99 2455.01 1544.99 2455.01 1544.99 2455.01 7.53624e+08 0.1
Loop time of 45.3906 on 4 procs for 500000 steps with 1000 atoms

unfix 2

fix 3 all nvt temp 370000 370000 $(100.0*dt) #iso 1.0 1.0 $(1000.0*dt)
fix 3 all nvt temp 370000 370000 10

run 2500000
Generated 0 of 1 mixed pair_coeff terms from geometric mixing rule
Step          Temp          Press          PotEng        Density         KinEng         TotEng           Lx             Ly             Lz            Xlo            Xhi            Ylo            Yhi            Zlo            Zhi           Volume           Dt            Time           CPU           T/CPU          S/CPU         CPULeft
92660000   361340.97      138.09015     -53442080       0.92994937     1076011.7     -52366069       910.02131      910.02131      910.02131      1544.9893      2455.0107      1544.9893      2455.0107      1544.9893      2455.0107      7.5362394e+08  0.1            12160000       0              0              0              0
Averages over the last 251 of 501 rows, steps 93910000 to 95160000:
Temp Press PotEng Density KinEng TotEng Lx Ly Lz Xlo Xhi Ylo Yhi Zlo Zhi Volume Dt
370256 -20.6791 -5.25386e+07 0.929949 1.10256e+06 -5.1436e+07 910.021 910.021 910.021 1544.99 2455.01 1544.99 2455.01 1544.99 2455.01 7.53624e+08 0.1
Loop time of 220.318 on 4 procs for 2500000 steps with 1000 atoms

unfix 3

fix 4 all nvt temp 370000 300 100.0

run 500000
Generated 0 of 1 mixed pair_coeff terms from geometric mixing rule
Step          Temp          Press          PotEng        Density         KinEng         TotEng           Lx             Ly             Lz            Xlo            Xhi            Ylo            Yhi            Zlo            Zhi           Volume           Dt            Time           CPU           T/CPU          S/CPU         CPULeft
95160000   376362.11     -28.58138      -52755710       0.92994937     1120742.1     -51634968       910.02131      910.02131      910.02131      1544.9893      2455.0107      1544.9893      2455.0107      1544.9893      2455.0107      7.5362394e+08  0.1            12410000       0              0              0              0
Averages over the last 51 of 101 rows, steps 95410000 to 95660000:
Temp Press PotEng Density KinEng TotEng Lx Ly Lz Xlo Xhi Ylo Yhi Zlo Zhi Volume Dt
93073.7 -403.752 -5.39622e+07 0.929949 277158 -5.3685e+07 910.021 910.021 910.021 1544.99 2455.01 1544.99 2455.01 1544.99 2455.01 7.53624e+08 0.1
Loop time of 43.9891 on 4 procs for 500000 steps with 1000 atoms

unfix 4

fix 5 all npt temp 300 300 $(100.0*dt) iso 1.0 1.0 $(1000.0*dt)
fix 5 all npt temp 300 300 10 iso 1.0 1.0 $(1000.0*dt)
fix 5 all npt temp 300 300 10 iso 1.0 1.0 100

run 1500000
Generated 0 of 1 mixed pair_coeff terms from geometric mixing rule
Step          Temp          Press          PotEng        Density         KinEng         TotEng           Lx             Ly             Lz            Xlo            Xhi            Ylo            Yhi            Zlo            Zhi           Volume           Dt            Time           CPU           T/CPU          S/CPU         CPULeft
95660000   1352.6612     -435.91018     -54528212       0.92994937     4027.9942     -54524184       910.02131      910.02131      910.02131      1544.9893      2455.0107      1544.9893      2455.0107      1544.9893      2455.0107      7.5362394e+08  0.1            12460000       0              0              0              0
Averages over the last 151 of 301 rows, steps 96410000 to 97160000:
Temp Press PotEng Density KinEng TotEng Lx Ly Lz Xlo Xhi Ylo Yhi Zlo Zhi Volume Dt
300.266 1.23323 -5.52237e+07 0.967894 894.142 -5.52228e+07 897.973 897.973 897.973 1551.01 2448.99 1551.01 2448.99 1551.01 2448.99 7.24088e+08 0.1
Loop time of 156.304 on 4 procs for 1500000 steps with 1000 atoms

# run_style
run_style verlet

# write restart
write_restart ./pgnpmf/010/equpmf89.res
System init for write_restart ...
Generated 0 of 1 mixed pair_coeff terms from geometric mixing rule
