LAMMPS (23 Jun 2022 - Update 1)
# Read restart
read_restart ./pgnpmf/010/equpmf77.res
Reading restart file ...
  restart file = 23 Jun 2022, LAMMPS = 23 Jun 2022
  restoring atom style atomic from restart
  orthogonal box = (1478.3269 1478.3269 1478.3269) to (2521.6731 2521.6731 2521.6731)
  restoring pair style table from restart
  1000 atoms
  read_restart CPU = 0.004 seconds

# Settings

pair_style table spline 9941

pair_coeff 1 1 ./pgnpmf/N20.txt DE_GNP 75.6
pair_coeff 2 2 ./pgnpmf/N100.txt DE_GNP 115.92
pair_coeff 1 2 ./pgnpmf/mixed_potential.txt DE_GNP 95.66

#Neigh_list Calc Frequency

neigh_modify delay 0 every 1 check yes

# Saving Frequency (50 frames)

variable ts_save equal 50000

variable nts equal 50000/0.1
variable medium equal 500000*3
variable long equal 500000*5

# Dump
#dump_modify 1 first no sort id
dump 2 all cfg 50000 ./pgnpmf/010/equilibration/trajectory/dumpequ.tens_*.cfg mass type xs ys zs fx fy fz
dump_modify 2 element N20 N100

# thermo_style
thermo_style custom step temp press pe density ke etotal lx ly lz xlo xhi ylo yhi zlo zhi vol dt time cpu tpcpu spcpu cpuremain

# run info
timestep 0.1
thermo 5000

# fix

fix 1 all momentum 1000 linear 1 1 1 angular
variable T equal 300
fix 2 all nvt temp 300 370000 100.0

run 500000
Generated 0 of 1 mixed pair_coeff terms from geometric mixing rule
Unused restart file global fix info:
  fix style: npt, fix ID: 5
  update every 1 steps, delay 0 steps, check yes
Step          Temp          Press          PotEng        Density         KinEng         TotEng           Lx             Ly             Lz            Xlo            Xhi            Ylo            Yhi            Zlo            Zhi           Volume           Dt            Time           CPU           T/CPU          S/CPU         CPULeft
37160000   310.39496      1.1159525     -53100437       0.61706166     924.30319     -53099513       1043.3463      1043.3463      1043.3463      1478.3269      2521.6731      1478.3269      2521.6731      1478.3269      2521.6731      1.135757e+09   0.1            6610000        0              0              0              0
Averages over the last 51 of 101 rows, steps 37410000 to 37660000:
Temp Press PotEng Density KinEng TotEng Lx Ly Lz Xlo Xhi Ylo Yhi Zlo Zhi Volume Dt
278657 49.7808 -5.21136e+07 0.617062 829793 -5.12838e+07 1043.35 1043.35 1043.35 1478.33 2521.67 1478.33 2521.67 1478.33 2521.67 1.13576e+09 0.1
Loop time of 49.7439 on 4 procs for 500000 steps with 1000 atoms

unfix 2

fix 3 all nvt temp 370000 370000 $(100.0*dt) #iso 1.0 1.0 $(1000.0*dt)
fix 3 all nvt temp 370000 370000 10

run 2500000
Generated 0 of 1 mixed pair_coeff terms from geometric mixing rule
Step          Temp          Press          PotEng        Density         KinEng         TotEng           Lx             Ly             Lz            Xlo            Xhi            Ylo            Yhi            Zlo            Zhi           Volume           Dt            Time           CPU           T/CPU          S/CPU         CPULeft
37660000   364961.32      18.432088     -51453800       0.61706166     1086792.5     -50367007       1043.3463      1043.3463      1043.3463      1478.3269      2521.6731      1478.3269      2521.6731      1478.3269      2521.6731      1.135757e+09   0.1            6660000        0              0              0              0
Averages over the last 251 of 501 rows, steps 38910000 to 40160000:
Temp Press PotEng Density KinEng TotEng Lx Ly Lz Xlo Xhi Ylo Yhi Zlo Zhi Volume Dt
369732 -10.1807 -5.02396e+07 0.617062 1.101e+06 -4.91386e+07 1043.35 1043.35 1043.35 1478.33 2521.67 1478.33 2521.67 1478.33 2521.67 1.13576e+09 0.1
Loop time of 252.306 on 4 procs for 2500000 steps with 1000 atoms

unfix 3

fix 4 all nvt temp 370000 300 100.0

run 500000
Generated 0 of 1 mixed pair_coeff terms from geometric mixing rule
Step          Temp          Press          PotEng        Density         KinEng         TotEng           Lx             Ly             Lz            Xlo            Xhi            Ylo            Yhi            Zlo            Zhi           Volume           Dt            Time           CPU           T/CPU          S/CPU         CPULeft
40160000   379018.84      27.321969     -50109250       0.61706166     1128653.4     -48980596       1043.3463      1043.3463      1043.3463      1478.3269      2521.6731      1478.3269      2521.6731      1478.3269      2521.6731      1.135757e+09   0.1            6910000        0              0              0              0
Averages over the last 51 of 101 rows, steps 40410000 to 40660000:
Temp Press PotEng Density KinEng TotEng Lx Ly Lz Xlo Xhi Ylo Yhi Zlo Zhi Volume Dt
93141 -159.364 -5.18831e+07 0.617062 277358 -5.16058e+07 1043.35 1043.35 1043.35 1478.33 2521.67 1478.33 2521.67 1478.33 2521.67 1.13576e+09 0.1
Loop time of 45.9782 on 4 procs for 500000 steps with 1000 atoms

unfix 4

fix 5 all npt temp 300 300 $(100.0*dt) iso 1.0 1.0 $(1000.0*dt)
fix 5 all npt temp 300 300 10 iso 1.0 1.0 $(1000.0*dt)
fix 5 all npt temp 300 300 10 iso 1.0 1.0 100

run 1500000
Generated 0 of 1 mixed pair_coeff terms from geometric mixing rule
Step          Temp          Press          PotEng        Density         KinEng         TotEng           Lx             Ly             Lz            Xlo            Xhi            Ylo            Yhi            Zlo            Zhi           Volume           Dt            Time           CPU           T/CPU          S/CPU         CPULeft
40660000   1352.1289     -136.20621     -52398509       0.61706166     4026.4089     -52394482       1043.3463      1043.3463      1043.3463      1478.3269      2521.6731      1478.3269      2521.6731      1478.3269      2521.6731      1.135757e+09   0.1            6960000        0              0              0              0
Averages over the last 151 of 301 rows, steps 41410000 to 42160000:
Temp Press PotEng Density KinEng TotEng Lx Ly Lz Xlo Xhi Ylo Yhi Zlo Zhi Volume Dt
299.414 0.895306 -5.28603e+07 0.631806 891.605 -5.28594e+07 1035.17 1035.17 1035.17 1482.42 2517.58 1482.42 2517.58 1482.42 2517.58 1.10926e+09 0.1
Loop time of 164.307 on 4 procs for 1500000 steps with 1000 atoms

# run_style
run_style verlet

# write restart
write_restart ./pgnpmf/010/equpmf78.res
System init for write_restart ...
Generated 0 of 1 mixed pair_coeff terms from geometric mixing rule
