LAMMPS (23 Jun 2022 - Update 1)
# Read restart
read_restart ./pgnpmf/010/equpmf78.res
Reading restart file ...
  restart file = 23 Jun 2022, LAMMPS = 23 Jun 2022
  restoring atom style atomic from restart
  orthogonal box = (1483.0895 1483.0895 1483.0895) to (2516.9105 2516.9105 2516.9105)
  restoring pair style table from restart
  1000 atoms
  read_restart CPU = 0.015 seconds

# Settings

pair_style table spline 9941

pair_coeff 1 1 ./pgnpmf/N20.txt DE_GNP 75.6
pair_coeff 2 2 ./pgnpmf/N100.txt DE_GNP 115.92
pair_coeff 1 2 ./pgnpmf/mixed_potential.txt DE_GNP 95.66

#Neigh_list Calc Frequency

neigh_modify delay 0 every 1 check yes

# Saving Frequency (50 frames)

variable ts_save equal 50000

variable nts equal 50000/0.1
variable medium equal 500000*3
variable long equal 500000*5

# Dump
#dump_modify 1 first no sort id
dump 2 all cfg 50000 ./pgnpmf/010/equilibration/trajectory/dumpequ.tens_*.cfg mass type xs ys zs fx fy fz
dump_modify 2 element N20 N100

# thermo_style
thermo_style custom step temp press pe density ke etotal lx ly lz xlo xhi ylo yhi zlo zhi vol dt time cpu tpcpu spcpu cpuremain

# run info
timestep 0.1
thermo 5000

# fix

fix 1 all momentum 1000 linear 1 1 1 angular
variable T equal 300
fix 2 all nvt temp 300 370000 100.0

run 500000
Generated 0 of 1 mixed pair_coeff terms from geometric mixing rule
Unused restart file global fix info:
  fix style: npt, fix ID: 5
  update every 1 steps, delay 0 steps, check yes
Step          Temp          Press          PotEng        Density         KinEng         TotEng           Lx             Ly             Lz            Xlo            Xhi            Ylo            Yhi            Zlo            Zhi           Volume           Dt            Time           CPU           T/CPU          S/CPU         CPULeft
42160000   300.18973      1.5638884     -52934010       0.6342755      893.91375     -52933116       1033.821       1033.821       1033.821       1483.0895      2516.9105      1483.0895      2516.9105      1483.0895      2516.9105      1.1049333e+09  0.1            7110000        0              0              0              0
Averages over the last 51 of 101 rows, steps 42410000 to 42660000:
Temp Press PotEng Density KinEng TotEng Lx Ly Lz Xlo Xhi Ylo Yhi Zlo Zhi Volume Dt
275653 29.1489 -5.17354e+07 0.634275 820847 -5.09146e+07 1033.82 1033.82 1033.82 1483.09 2516.91 1483.09 2516.91 1483.09 2516.91 1.10493e+09 0.1
Loop time of 46.6516 on 4 procs for 500000 steps with 1000 atoms

unfix 2

fix 3 all nvt temp 370000 370000 $(100.0*dt) #iso 1.0 1.0 $(1000.0*dt)
fix 3 all nvt temp 370000 370000 10

run 2500000
Generated 0 of 1 mixed pair_coeff terms from geometric mixing rule
Step          Temp          Press          PotEng        Density         KinEng         TotEng           Lx             Ly             Lz            Xlo            Xhi            Ylo            Yhi            Zlo            Zhi           Volume           Dt            Time           CPU           T/CPU          S/CPU         CPULeft
42660000   357556.61     -7.0865963     -51148032       0.6342755      1064742.5     -50083289       1033.821       1033.821       1033.821       1483.0895      2516.9105      1483.0895      2516.9105      1483.0895      2516.9105      1.1049333e+09  0.1            7160000        0              0              0              0
Averages over the last 251 of 501 rows, steps 43910000 to 45160000:
Temp Press PotEng Density KinEng TotEng Lx Ly Lz Xlo Xhi Ylo Yhi Zlo Zhi Volume Dt
370864 -2.90081 -5.00146e+07 0.634275 1.10437e+06 -4.89102e+07 1033.82 1033.82 1033.82 1483.09 2516.91 1483.09 2516.91 1483.09 2516.91 1.10493e+09 0.1
Loop time of 225.806 on 4 procs for 2500000 steps with 1000 atoms

unfix 3

fix 4 all nvt temp 370000 300 100.0

run 500000
Generated 0 of 1 mixed pair_coeff terms from geometric mixing rule
Step          Temp          Press          PotEng        Density         KinEng         TotEng           Lx             Ly             Lz            Xlo            Xhi            Ylo            Yhi            Zlo            Zhi           Volume           Dt            Time           CPU           T/CPU          S/CPU         CPULeft
45160000   351388.56     -55.449641     -50414405       0.6342755      1046375.1     -49368030       1033.821       1033.821       1033.821       1483.0895      2516.9105      1483.0895      2516.9105      1483.0895      2516.9105      1.1049333e+09  0.1            7410000        0              0              0              0
Averages over the last 51 of 101 rows, steps 45410000 to 45660000:
Temp Press PotEng Density KinEng TotEng Lx Ly Lz Xlo Xhi Ylo Yhi Zlo Zhi Volume Dt
92978.8 -172.75 -5.19765e+07 0.634275 276875 -5.16997e+07 1033.82 1033.82 1033.82 1483.09 2516.91 1483.09 2516.91 1483.09 2516.91 1.10493e+09 0.1
Loop time of 45.5508 on 4 procs for 500000 steps with 1000 atoms

unfix 4

fix 5 all npt temp 300 300 $(100.0*dt) iso 1.0 1.0 $(1000.0*dt)
fix 5 all npt temp 300 300 10 iso 1.0 1.0 $(1000.0*dt)
fix 5 all npt temp 300 300 10 iso 1.0 1.0 100

run 1500000
Generated 0 of 1 mixed pair_coeff terms from geometric mixing rule
Step          Temp          Press          PotEng        Density         KinEng         TotEng           Lx             Ly             Lz            Xlo            Xhi            Ylo            Yhi            Zlo            Zhi           Volume           Dt            Time           CPU           T/CPU          S/CPU         CPULeft
45660000   1353.441      -159.33581     -52524461       0.6342755      4030.3162     -52520431       1033.821       1033.821       1033.821       1483.0895      2516.9105      1483.0895      2516.9105      1483.0895      2516.9105      1.1049333e+09  0.1            7460000        0              0              0              0
Averages over the last 151 of 301 rows, steps 46410000 to 47160000:
Temp Press PotEng Density KinEng TotEng Lx Ly Lz Xlo Xhi Ylo Yhi Zlo Zhi Volume Dt
299.786 0.781311 -5.30803e+07 0.651007 892.713 -5.30794e+07 1024.89 1024.89 1024.89 1487.56 2512.44 1487.56 2512.44 1487.56 2512.44 1.07654e+09 0.1
Loop time of 162.655 on 4 procs for 1500000 steps with 1000 atoms

# run_style
run_style verlet

# write restart
write_restart ./pgnpmf/010/equpmf79.res
System init for write_restart ...
Generated 0 of 1 mixed pair_coeff terms from geometric mixing rule
