LAMMPS (23 Jun 2022 - Update 1)
# Read restart
read_restart ./pgnpmf/010/equpmf38.res
Reading restart file ...
  restart file = 23 Jun 2022, LAMMPS = 23 Jun 2022
  restoring atom style atomic from restart
  orthogonal box = (1163.5294 1163.5294 1163.5294) to (2836.4706 2836.4706 2836.4706)
  restoring pair style table from restart
  1000 atoms
  read_restart CPU = 0.048 seconds

# Settings

pair_style table spline 9941

pair_coeff 1 1 ./pgnpmf/N20.txt DE_GNP 75.6
pair_coeff 2 2 ./pgnpmf/N100.txt DE_GNP 115.92
pair_coeff 1 2 ./pgnpmf/mixed_potential.txt DE_GNP 95.66

#Neigh_list Calc Frequency

neigh_modify delay 0 every 1 check yes

# Saving Frequency (50 frames)

variable ts_save equal 5000

variable nts equal 5000/0.5
variable medium equal 10000*3
variable long equal 10000*5

# Dump
#dump_modify 1 first no sort id
dump 2 all cfg 50000 ./pgnpmf/010/equilibration/trajectory/dumpequ.tens_*.cfg mass type xs ys zs fx fy fz
dump_modify 2 element N20 N100

# thermo_style
thermo_style custom step temp press pe density ke etotal lx ly lz xlo xhi ylo yhi zlo zhi vol dt time cpu tpcpu spcpu cpuremain

# run info
timestep 0.5
thermo 5000

# fix

fix 1 all momentum 1000 linear 1 1 1 angular
variable T equal 300
fix 2 all nvt temp 300 370000 100.0

run 10000
Generated 0 of 1 mixed pair_coeff terms from geometric mixing rule
Unused restart file global fix info:
  fix style: npt, fix ID: 5
  update every 1 steps, delay 0 steps, check yes
Step          Temp          Press          PotEng        Density         KinEng         TotEng           Lx             Ly             Lz            Xlo            Xhi            Ylo            Yhi            Zlo            Zhi           Volume           Dt            Time           CPU           T/CPU          S/CPU         CPULeft
3860000   360.25         1.4185868     -40661638       0.14968284     1072.763      -40660565       1672.9411      1672.9411      1672.9411      1163.5294      2836.4706      1163.5294      2836.4706      1163.5294      2836.4706      4.6821138e+09  0.5            1960000        0              0              0              0
Loop time of 1.09442 on 4 procs for 10000 steps with 1000 atoms

unfix 2

fix 3 all nvt temp 370000 370000 $(100.0*dt) #iso 1.0 1.0 $(1000.0*dt)
fix 3 all nvt temp 370000 370000 50

run 50000
Generated 0 of 1 mixed pair_coeff terms from geometric mixing rule
Step          Temp          Press          PotEng        Density         KinEng         TotEng           Lx             Ly             Lz            Xlo            Xhi            Ylo            Yhi            Zlo            Zhi           Volume           Dt            Time           CPU           T/CPU          S/CPU         CPULeft
3870000   365636.75     -9.1730852     -40631578       0.14968284     1088803.8     -39542774       1672.9411      1672.9411      1672.9411      1163.5294      2836.4706      1163.5294      2836.4706      1163.5294      2836.4706      4.6821138e+09  0.5            1965000        0              0              0              0
Averages over the last 6 of 11 rows, steps 3895000 to 3920000:
Temp Press PotEng Density KinEng TotEng Lx Ly Lz Xlo Xhi Ylo Yhi Zlo Zhi Volume Dt
383403 15.1704 -4.0366e+07 0.149683 1.14171e+06 -3.92243e+07 1672.94 1672.94 1672.94 1163.53 2836.47 1163.53 2836.47 1163.53 2836.47 4.68211e+09 0.5
Loop time of 5.52512 on 4 procs for 50000 steps with 1000 atoms

unfix 3

fix 4 all nvt temp 370000 300 100.0

run 10000
Generated 0 of 1 mixed pair_coeff terms from geometric mixing rule
Step          Temp          Press          PotEng        Density         KinEng         TotEng           Lx             Ly             Lz            Xlo            Xhi            Ylo            Yhi            Zlo            Zhi           Volume           Dt            Time           CPU           T/CPU          S/CPU         CPULeft
3920000   385436.75     -1.1723686     -39979030       0.14968284     1147764.8     -38831266       1672.9411      1672.9411      1672.9411      1163.5294      2836.4706      1163.5294      2836.4706      1163.5294      2836.4706      4.6821138e+09  0.5            1990000        0              0              0              0
Loop time of 1.08403 on 4 procs for 10000 steps with 1000 atoms

unfix 4

fix 5 all npt temp 300 300 $(100.0*dt) iso 1.0 1.0 $(1000.0*dt)
fix 5 all npt temp 300 300 50 iso 1.0 1.0 $(1000.0*dt)
fix 5 all npt temp 300 300 50 iso 1.0 1.0 500

run 30000
Generated 0 of 1 mixed pair_coeff terms from geometric mixing rule
Step          Temp          Press          PotEng        Density         KinEng         TotEng           Lx             Ly             Lz            Xlo            Xhi            Ylo            Yhi            Zlo            Zhi           Volume           Dt            Time           CPU           T/CPU          S/CPU         CPULeft
3930000   9227.9562     -67.976175     -40176366       0.14968284     27479.278     -40148887       1672.9411      1672.9411      1672.9411      1163.5294      2836.4706      1163.5294      2836.4706      1163.5294      2836.4706      4.6821138e+09  0.5            1995000        0              0              0              0
Loop time of 3.89372 on 4 procs for 30000 steps with 1000 atoms

# run_style
run_style verlet

# write restart
write_restart ./pgnpmf/010/equpmf39.res
System init for write_restart ...
Generated 0 of 1 mixed pair_coeff terms from geometric mixing rule
