LAMMPS (23 Jun 2022 - Update 1)
# Read restart
read_restart ./pgnpmf/010/equpmf98.res
Reading restart file ...
  restart file = 23 Jun 2022, LAMMPS = 23 Jun 2022
  restoring atom style atomic from restart
  orthogonal box = (1617.4682 1617.4682 1617.4682) to (2382.5318 2382.5318 2382.5318)
  restoring pair style table from restart
  1000 atoms
  read_restart CPU = 0.005 seconds

# Settings

pair_style table spline 9941

pair_coeff 1 1 ./pgnpmf/N20.txt DE_GNP 75.6
pair_coeff 2 2 ./pgnpmf/N100.txt DE_GNP 115.92
pair_coeff 1 2 ./pgnpmf/mixed_potential.txt DE_GNP 95.66

#Neigh_list Calc Frequency

neigh_modify delay 0 every 1 check yes

# Saving Frequency (50 frames)

variable ts_save equal 50000

variable nts equal 50000/0.1
variable medium equal 500000*3
variable long equal 500000*5

# Dump
#dump_modify 1 first no sort id
dump 2 all cfg 50000 ./pgnpmf/010/equilibration/trajectory/dumpequ.tens_*.cfg mass type xs ys zs fx fy fz
dump_modify 2 element N20 N100

# thermo_style
thermo_style custom step temp press pe density ke etotal lx ly lz xlo xhi ylo yhi zlo zhi vol dt time cpu tpcpu spcpu cpuremain

# run info
timestep 0.1
thermo 5000

# fix

fix 1 all momentum 1000 linear 1 1 1 angular
variable T equal 300
fix 2 all nvt temp 300 370000 100.0

run 500000
Generated 0 of 1 mixed pair_coeff terms from geometric mixing rule
Unused restart file global fix info:
  fix style: npt, fix ID: 5
  update every 1 steps, delay 0 steps, check yes
Step          Temp          Press          PotEng        Density         KinEng         TotEng           Lx             Ly             Lz            Xlo            Xhi            Ylo            Yhi            Zlo            Zhi           Volume           Dt            Time           CPU           T/CPU          S/CPU         CPULeft
142160000   301.89924      0.37676614    -61131626       1.5650257      899.00438     -61130727       765.06354      765.06354      765.06354      1617.4682      2382.5318      1617.4682      2382.5318      1617.4682      2382.5318      4.478087e+08   0.1            17110000       0              0              0              0
Averages over the last 51 of 101 rows, steps 142410000 to 142660000:
Temp Press PotEng Density KinEng TotEng Lx Ly Lz Xlo Xhi Ylo Yhi Zlo Zhi Volume Dt
277367 1169.91 -6.05979e+07 1.56503 825953 -5.9772e+07 765.064 765.064 765.064 1617.47 2382.53 1617.47 2382.53 1617.47 2382.53 4.47809e+08 0.1
Loop time of 35.6502 on 4 procs for 500000 steps with 1000 atoms

unfix 2

fix 3 all nvt temp 370000 370000 $(100.0*dt) #iso 1.0 1.0 $(1000.0*dt)
fix 3 all nvt temp 370000 370000 10

run 2500000
Generated 0 of 1 mixed pair_coeff terms from geometric mixing rule
Step          Temp          Press          PotEng        Density         KinEng         TotEng           Lx             Ly             Lz            Xlo            Xhi            Ylo            Yhi            Zlo            Zhi           Volume           Dt            Time           CPU           T/CPU          S/CPU         CPULeft
142660000   369855.27      1524.1991     -60387270       1.5650257      1101365.8     -59285904       765.06354      765.06354      765.06354      1617.4682      2382.5318      1617.4682      2382.5318      1617.4682      2382.5318      4.478087e+08   0.1            17160000       0              0              0              0
Averages over the last 251 of 501 rows, steps 143910000 to 145160000:
Temp Press PotEng Density KinEng TotEng Lx Ly Lz Xlo Xhi Ylo Yhi Zlo Zhi Volume Dt
369846 1287.78 -6.04987e+07 1.56503 1.10134e+06 -5.93974e+07 765.064 765.064 765.064 1617.47 2382.53 1617.47 2382.53 1617.47 2382.53 4.47809e+08 0.1
Loop time of 179.66 on 4 procs for 2500000 steps with 1000 atoms

unfix 3

fix 4 all nvt temp 370000 300 100.0

run 500000
Generated 0 of 1 mixed pair_coeff terms from geometric mixing rule
Step          Temp          Press          PotEng        Density         KinEng         TotEng           Lx             Ly             Lz            Xlo            Xhi            Ylo            Yhi            Zlo            Zhi           Volume           Dt            Time           CPU           T/CPU          S/CPU         CPULeft
145160000   371877.5       1318.372      -60459108       1.5650257      1107387.7     -59351721       765.06354      765.06354      765.06354      1617.4682      2382.5318      1617.4682      2382.5318      1617.4682      2382.5318      4.478087e+08   0.1            17410000       0              0              0              0
Averages over the last 51 of 101 rows, steps 145410000 to 145660000:
Temp Press PotEng Density KinEng TotEng Lx Ly Lz Xlo Xhi Ylo Yhi Zlo Zhi Volume Dt
92909.2 -33.4677 -6.13082e+07 1.56503 276668 -6.10316e+07 765.064 765.064 765.064 1617.47 2382.53 1617.47 2382.53 1617.47 2382.53 4.47809e+08 0.1
Loop time of 36.2166 on 4 procs for 500000 steps with 1000 atoms

unfix 4

fix 5 all npt temp 300 300 $(100.0*dt) iso 1.0 1.0 $(1000.0*dt)
fix 5 all npt temp 300 300 10 iso 1.0 1.0 $(1000.0*dt)
fix 5 all npt temp 300 300 10 iso 1.0 1.0 100

run 1500000
Generated 0 of 1 mixed pair_coeff terms from geometric mixing rule
Step          Temp          Press          PotEng        Density         KinEng         TotEng           Lx             Ly             Lz            Xlo            Xhi            Ylo            Yhi            Zlo            Zhi           Volume           Dt            Time           CPU           T/CPU          S/CPU         CPULeft
145660000   1374.5537     -415.48073     -61630902       1.5650257      4093.1861     -61626809       765.06354      765.06354      765.06354      1617.4682      2382.5318      1617.4682      2382.5318      1617.4682      2382.5318      4.478087e+08   0.1            17460000       0              0              0              0
Averages over the last 151 of 301 rows, steps 146410000 to 147160000:
Temp Press PotEng Density KinEng TotEng Lx Ly Lz Xlo Xhi Ylo Yhi Zlo Zhi Volume Dt
300.346 0.743238 -6.18607e+07 1.58029 894.378 -6.18598e+07 762.592 762.592 762.592 1618.7 2381.3 1618.7 2381.3 1618.7 2381.3 4.43482e+08 0.1
Loop time of 127.097 on 4 procs for 1500000 steps with 1000 atoms

# run_style
run_style verlet

# write restart
write_restart ./pgnpmf/010/equpmf99.res
System init for write_restart ...
Generated 0 of 1 mixed pair_coeff terms from geometric mixing rule
