LAMMPS (23 Jun 2022 - Update 1)
# Read restart
read_restart ./pgnpmf/91/equpmf44.res
Reading restart file ...
  restart file = 23 Jun 2022, LAMMPS = 23 Jun 2022
  restoring atom style atomic from restart
  orthogonal box = (1733.3709 1733.3709 1733.3709) to (2266.6291 2266.6291 2266.6291)
  restoring pair style table from restart
  1000 atoms
  read_restart CPU = 0.004 seconds

# Settings

pair_style table spline 9941

pair_coeff 1 1 ./pgnpmf/N20.txt DE_GNP 75.6
pair_coeff 2 2 ./pgnpmf/N100.txt DE_GNP 115.92
pair_coeff 1 2 ./pgnpmf/mixed_potential.txt DE_GNP 95.66

#Neigh_list Calc Frequency

neigh_modify delay 0 every 1 check yes

# Saving Frequency (50 frames)

variable ts_save equal 5000

# Dump
#dump_modify 1 first no sort id
dump 2 all cfg 50000 ./pgnpmf/91/equilibration/trajectory/dumpgen.tens_*.cfg mass type xs ys zs fx fy fz
dump_modify 2 element N20 N100

# thermo_style
thermo_style custom step temp press pe density ke etotal lx ly lz xlo xhi ylo yhi zlo zhi vol dt time cpu tpcpu spcpu cpuremain

# run info
timestep 0.5
thermo 200

# fix

fix 1 all momentum 1000 linear 1 1 1 angular
variable T equal 300
fix 2 all nvt temp 300 370000 100.0

run 100000
Generated 0 of 1 mixed pair_coeff terms from geometric mixing rule
Unused restart file global fix info:
  fix style: npt, fix ID: 5
  update every 1 steps, delay 0 steps, check yes
Step          Temp          Press          PotEng        Density         KinEng         TotEng           Lx             Ly             Lz            Xlo            Xhi            Ylo            Yhi            Zlo            Zhi           Volume           Dt            Time           CPU           T/CPU          S/CPU         CPULeft
31210000   323.31228     -1.9313794     -10586141       2.648625       962.76875     -10585179       533.2581       533.2581       533.2581       1733.3709      2266.6291      1733.3709      2266.6291      1733.3709      2266.6291      1.5163952e+08  0.5            15810000       0              0              0              0
Averages over the last 251 of 501 rows, steps 31260000 to 31310000:
Temp Press PotEng Density KinEng TotEng Lx Ly Lz Xlo Xhi Ylo Yhi Zlo Zhi Volume Dt
277494 4068.81 -9.83647e+06 2.64863 826328 -9.01014e+06 533.258 533.258 533.258 1733.37 2266.63 1733.37 2266.63 1733.37 2266.63 1.5164e+08 0.5
Loop time of 10.019 on 4 procs for 100000 steps with 1000 atoms

unfix 2

fix 3 all nvt temp 370000 370000 $(100.0*dt) #iso 1.0 1.0 $(1000.0*dt)
fix 3 all nvt temp 370000 370000 50

run 200000
Generated 0 of 1 mixed pair_coeff terms from geometric mixing rule
Step          Temp          Press          PotEng        Density         KinEng         TotEng           Lx             Ly             Lz            Xlo            Xhi            Ylo            Yhi            Zlo            Zhi           Volume           Dt            Time           CPU           T/CPU          S/CPU         CPULeft
31310000   368214.36      4873.5649     -9615608.2      2.648625       1096479.5     -8519128.8      533.2581       533.2581       533.2581       1733.3709      2266.6291      1733.3709      2266.6291      1733.3709      2266.6291      1.5163952e+08  0.5            15860000       0              0              0              0
Averages over the last 501 of 1001 rows, steps 31410000 to 31510000:
Temp Press PotEng Density KinEng TotEng Lx Ly Lz Xlo Xhi Ylo Yhi Zlo Zhi Volume Dt
369754 5054.96 -9.56344e+06 2.64863 1.10106e+06 -8.46237e+06 533.258 533.258 533.258 1733.37 2266.63 1733.37 2266.63 1733.37 2266.63 1.5164e+08 0.5
Loop time of 20.3168 on 4 procs for 200000 steps with 1000 atoms

unfix 3

fix 4 all nvt temp 370000 300 100.0

run 100000
Generated 0 of 1 mixed pair_coeff terms from geometric mixing rule
Step          Temp          Press          PotEng        Density         KinEng         TotEng           Lx             Ly             Lz            Xlo            Xhi            Ylo            Yhi            Zlo            Zhi           Volume           Dt            Time           CPU           T/CPU          S/CPU         CPULeft
31510000   374912.74      4944.9476     -9603195.5      2.648625       1116426.1     -8486769.3      533.2581       533.2581       533.2581       1733.3709      2266.6291      1733.3709      2266.6291      1733.3709      2266.6291      1.5163952e+08  0.5            15960000       0              0              0              0
Averages over the last 251 of 501 rows, steps 31560000 to 31610000:
Temp Press PotEng Density KinEng TotEng Lx Ly Lz Xlo Xhi Ylo Yhi Zlo Zhi Volume Dt
93143.6 1655.12 -1.02626e+07 2.64863 277366 -9.9852e+06 533.258 533.258 533.258 1733.37 2266.63 1733.37 2266.63 1733.37 2266.63 1.5164e+08 0.5
Loop time of 10.0544 on 4 procs for 100000 steps with 1000 atoms

unfix 4

fix 5 all npt temp 300 300 $(100.0*dt) iso 1.0 1.0 $(1000.0*dt)
fix 5 all npt temp 300 300 50 iso 1.0 1.0 $(1000.0*dt)
fix 5 all npt temp 300 300 50 iso 1.0 1.0 500

run 300000
Generated 0 of 1 mixed pair_coeff terms from geometric mixing rule
Step          Temp          Press          PotEng        Density         KinEng         TotEng           Lx             Ly             Lz            Xlo            Xhi            Ylo            Yhi            Zlo            Zhi           Volume           Dt            Time           CPU           T/CPU          S/CPU         CPULeft
31610000   1404.0022      355.58543     -10504557       2.648625       4180.8789     -10500376       533.2581       533.2581       533.2581       1733.3709      2266.6291      1733.3709      2266.6291      1733.3709      2266.6291      1.5163952e+08  0.5            16010000       0              0              0              0
Averages over the last 751 of 1501 rows, steps 31760000 to 31910000:
Temp Press PotEng Density KinEng TotEng Lx Ly Lz Xlo Xhi Ylo Yhi Zlo Zhi Volume Dt
300.119 0.755159 -1.05519e+07 2.64046 893.702 -1.0551e+07 533.807 533.807 533.807 1733.1 2266.9 1733.1 2266.9 1733.1 2266.9 1.52108e+08 0.5
Loop time of 34.1116 on 4 procs for 300000 steps with 1000 atoms

# run_style
run_style verlet

# write restart
write_restart ./pgnpmf/91/equpmf45.res
System init for write_restart ...
Generated 0 of 1 mixed pair_coeff terms from geometric mixing rule
