LAMMPS (23 Jun 2022 - Update 1)
# Read restart
read_restart ./pgnpmf/91/equpmf45.res
Reading restart file ...
  restart file = 23 Jun 2022, LAMMPS = 23 Jun 2022
  restoring atom style atomic from restart
  orthogonal box = (1733.109 1733.109 1733.109) to (2266.891 2266.891 2266.891)
  restoring pair style table from restart
  1000 atoms
  read_restart CPU = 0.004 seconds

# Settings

pair_style table spline 9941

pair_coeff 1 1 ./pgnpmf/N20.txt DE_GNP 75.6
pair_coeff 2 2 ./pgnpmf/N100.txt DE_GNP 115.92
pair_coeff 1 2 ./pgnpmf/mixed_potential.txt DE_GNP 95.66

#Neigh_list Calc Frequency

neigh_modify delay 0 every 1 check yes

# Saving Frequency (50 frames)

variable ts_save equal 5000

# Dump
#dump_modify 1 first no sort id
dump 2 all cfg 50000 ./pgnpmf/91/equilibration/trajectory/dumpgen.tens_*.cfg mass type xs ys zs fx fy fz
dump_modify 2 element N20 N100

# thermo_style
thermo_style custom step temp press pe density ke etotal lx ly lz xlo xhi ylo yhi zlo zhi vol dt time cpu tpcpu spcpu cpuremain

# run info
timestep 0.5
thermo 200

# fix

fix 1 all momentum 1000 linear 1 1 1 angular
variable T equal 300
fix 2 all nvt temp 300 370000 100.0

run 100000
Generated 0 of 1 mixed pair_coeff terms from geometric mixing rule
Unused restart file global fix info:
  fix style: npt, fix ID: 5
  update every 1 steps, delay 0 steps, check yes
Step          Temp          Press          PotEng        Density         KinEng         TotEng           Lx             Ly             Lz            Xlo            Xhi            Ylo            Yhi            Zlo            Zhi           Volume           Dt            Time           CPU           T/CPU          S/CPU         CPULeft
31910000   309.67364      9.0434266     -10554312       2.6408346      922.15523     -10553390       533.78195      533.78195      533.78195      1733.109       2266.891       1733.109       2266.891       1733.109       2266.891       1.5208685e+08  0.5            16160000       0              0              0              0
Averages over the last 251 of 501 rows, steps 31960000 to 32010000:
Temp Press PotEng Density KinEng TotEng Lx Ly Lz Xlo Xhi Ylo Yhi Zlo Zhi Volume Dt
277430 3947.19 -9.83955e+06 2.64083 826139 -9.01341e+06 533.782 533.782 533.782 1733.11 2266.89 1733.11 2266.89 1733.11 2266.89 1.52087e+08 0.5
Loop time of 10.1735 on 4 procs for 100000 steps with 1000 atoms

unfix 2

fix 3 all nvt temp 370000 370000 $(100.0*dt) #iso 1.0 1.0 $(1000.0*dt)
fix 3 all nvt temp 370000 370000 50

run 200000
Generated 0 of 1 mixed pair_coeff terms from geometric mixing rule
Step          Temp          Press          PotEng        Density         KinEng         TotEng           Lx             Ly             Lz            Xlo            Xhi            Ylo            Yhi            Zlo            Zhi           Volume           Dt            Time           CPU           T/CPU          S/CPU         CPULeft
32010000   379399.85      4754.1409     -9623976.4      2.6408346      1129788       -8494188.4      533.78195      533.78195      533.78195      1733.109       2266.891       1733.109       2266.891       1733.109       2266.891       1.5208685e+08  0.5            16210000       0              0              0              0
Averages over the last 501 of 1001 rows, steps 32110000 to 32210000:
Temp Press PotEng Density KinEng TotEng Lx Ly Lz Xlo Xhi Ylo Yhi Zlo Zhi Volume Dt
369883 4970.07 -9.53708e+06 2.64083 1.10145e+06 -8.43564e+06 533.782 533.782 533.782 1733.11 2266.89 1733.11 2266.89 1733.11 2266.89 1.52087e+08 0.5
Loop time of 20.3342 on 4 procs for 200000 steps with 1000 atoms

unfix 3

fix 4 all nvt temp 370000 300 100.0

run 100000
Generated 0 of 1 mixed pair_coeff terms from geometric mixing rule
Step          Temp          Press          PotEng        Density         KinEng         TotEng           Lx             Ly             Lz            Xlo            Xhi            Ylo            Yhi            Zlo            Zhi           Volume           Dt            Time           CPU           T/CPU          S/CPU         CPULeft
32210000   380128.44      5022.4772     -9519162.3      2.6408346      1131957.6     -8387204.7      533.78195      533.78195      533.78195      1733.109       2266.891       1733.109       2266.891       1733.109       2266.891       1.5208685e+08  0.5            16310000       0              0              0              0
Averages over the last 251 of 501 rows, steps 32260000 to 32310000:
Temp Press PotEng Density KinEng TotEng Lx Ly Lz Xlo Xhi Ylo Yhi Zlo Zhi Volume Dt
93197 1494.53 -1.02412e+07 2.64083 277525 -9.96365e+06 533.782 533.782 533.782 1733.11 2266.89 1733.11 2266.89 1733.11 2266.89 1.52087e+08 0.5
Loop time of 9.81439 on 4 procs for 100000 steps with 1000 atoms

unfix 4

fix 5 all npt temp 300 300 $(100.0*dt) iso 1.0 1.0 $(1000.0*dt)
fix 5 all npt temp 300 300 50 iso 1.0 1.0 $(1000.0*dt)
fix 5 all npt temp 300 300 50 iso 1.0 1.0 500

run 300000
Generated 0 of 1 mixed pair_coeff terms from geometric mixing rule
Step          Temp          Press          PotEng        Density         KinEng         TotEng           Lx             Ly             Lz            Xlo            Xhi            Ylo            Yhi            Zlo            Zhi           Volume           Dt            Time           CPU           T/CPU          S/CPU         CPULeft
32310000   1392.0544      164.3131      -10496259       2.6408346      4145.3004     -10492114       533.78195      533.78195      533.78195      1733.109       2266.891       1733.109       2266.891       1733.109       2266.891       1.5208685e+08  0.5            16360000       0              0              0              0
Averages over the last 751 of 1501 rows, steps 32460000 to 32610000:
Temp Press PotEng Density KinEng TotEng Lx Ly Lz Xlo Xhi Ylo Yhi Zlo Zhi Volume Dt
300.129 1.09849 -1.05542e+07 2.64279 893.734 -1.05533e+07 533.65 533.65 533.65 1733.17 2266.83 1733.17 2266.83 1733.17 2266.83 1.51974e+08 0.5
Loop time of 33.5947 on 4 procs for 300000 steps with 1000 atoms

# run_style
run_style verlet

# write restart
write_restart ./pgnpmf/91/equpmf46.res
System init for write_restart ...
Generated 0 of 1 mixed pair_coeff terms from geometric mixing rule
