LAMMPS (23 Jun 2022 - Update 1)
# Read restart
read_restart ./pgnpmf/91/equpmf21.res
Reading restart file ...
  restart file = 23 Jun 2022, LAMMPS = 23 Jun 2022
  restoring atom style atomic from restart
  orthogonal box = (1733.243 1733.243 1733.243) to (2266.757 2266.757 2266.757)
  restoring pair style table from restart
  1000 atoms
  read_restart CPU = 0.004 seconds

# Settings

pair_style table spline 9941

pair_coeff 1 1 ./pgnpmf/N20.txt DE_GNP 75.6
pair_coeff 2 2 ./pgnpmf/N100.txt DE_GNP 115.92
pair_coeff 1 2 ./pgnpmf/mixed_potential.txt DE_GNP 95.66

#Neigh_list Calc Frequency

neigh_modify delay 0 every 1 check yes

# Saving Frequency (50 frames)

variable ts_save equal 5000

# Dump
#dump_modify 1 first no sort id
dump 2 all cfg 50000 ./pgnpmf/91/equilibration/trajectory/dumpgen.tens_*.cfg mass type xs ys zs fx fy fz
dump_modify 2 element N20 N100

# thermo_style
thermo_style custom step temp press pe density ke etotal lx ly lz xlo xhi ylo yhi zlo zhi vol dt time cpu tpcpu spcpu cpuremain

# run info
timestep 0.5
thermo 200

# fix

fix 1 all momentum 1000 linear 1 1 1 angular
variable T equal 300
fix 2 all nvt temp 300 370000 100.0

run 100000
Generated 0 of 1 mixed pair_coeff terms from geometric mixing rule
Unused restart file global fix info:
  fix style: npt, fix ID: 5
  update every 1 steps, delay 0 steps, check yes
Step          Temp          Press          PotEng        Density         KinEng         TotEng           Lx             Ly             Lz            Xlo            Xhi            Ylo            Yhi            Zlo            Zhi           Volume           Dt            Time           CPU           T/CPU          S/CPU         CPULeft
15110000   295.70035      4.1919922     -10580965       2.6448164      880.54514     -10580085       533.51394      533.51394      533.51394      1733.243       2266.757       1733.243       2266.757       1733.243       2266.757       1.5185788e+08  0.5            7760000        0              0              0              0
Averages over the last 251 of 501 rows, steps 15160000 to 15210000:
Temp Press PotEng Density KinEng TotEng Lx Ly Lz Xlo Xhi Ylo Yhi Zlo Zhi Volume Dt
277601 3999.16 -9.85688e+06 2.64482 826647 -9.03023e+06 533.514 533.514 533.514 1733.24 2266.76 1733.24 2266.76 1733.24 2266.76 1.51858e+08 0.5
Loop time of 10.1745 on 4 procs for 100000 steps with 1000 atoms

unfix 2

fix 3 all nvt temp 370000 370000 $(100.0*dt) #iso 1.0 1.0 $(1000.0*dt)
fix 3 all nvt temp 370000 370000 50

run 200000
Generated 0 of 1 mixed pair_coeff terms from geometric mixing rule
Step          Temp          Press          PotEng        Density         KinEng         TotEng           Lx             Ly             Lz            Xlo            Xhi            Ylo            Yhi            Zlo            Zhi           Volume           Dt            Time           CPU           T/CPU          S/CPU         CPULeft
15210000   384627.69      5134.3707     -9624717.8      2.6448164      1145355.6     -8479362.2      533.51394      533.51394      533.51394      1733.243       2266.757       1733.243       2266.757       1733.243       2266.757       1.5185788e+08  0.5            7810000        0              0              0              0
Averages over the last 501 of 1001 rows, steps 15310000 to 15410000:
Temp Press PotEng Density KinEng TotEng Lx Ly Lz Xlo Xhi Ylo Yhi Zlo Zhi Volume Dt
370199 5119.99 -9.53879e+06 2.64482 1.10239e+06 -8.4364e+06 533.514 533.514 533.514 1733.24 2266.76 1733.24 2266.76 1733.24 2266.76 1.51858e+08 0.5
Loop time of 20.5785 on 4 procs for 200000 steps with 1000 atoms

unfix 3

fix 4 all nvt temp 370000 300 100.0

run 100000
Generated 0 of 1 mixed pair_coeff terms from geometric mixing rule
Step          Temp          Press          PotEng        Density         KinEng         TotEng           Lx             Ly             Lz            Xlo            Xhi            Ylo            Yhi            Zlo            Zhi           Volume           Dt            Time           CPU           T/CPU          S/CPU         CPULeft
15410000   355495.8       5212.8261     -9471085.3      2.6448164      1058605.8     -8412479.5      533.51394      533.51394      533.51394      1733.243       2266.757       1733.243       2266.757       1733.243       2266.757       1.5185788e+08  0.5            7910000        0              0              0              0
Averages over the last 251 of 501 rows, steps 15460000 to 15510000:
Temp Press PotEng Density KinEng TotEng Lx Ly Lz Xlo Xhi Ylo Yhi Zlo Zhi Volume Dt
93075.2 1584.57 -1.02665e+07 2.64482 277162 -9.98936e+06 533.514 533.514 533.514 1733.24 2266.76 1733.24 2266.76 1733.24 2266.76 1.51858e+08 0.5
Loop time of 10.0431 on 4 procs for 100000 steps with 1000 atoms

unfix 4

fix 5 all npt temp 300 300 $(100.0*dt) iso 1.0 1.0 $(1000.0*dt)
fix 5 all npt temp 300 300 50 iso 1.0 1.0 $(1000.0*dt)
fix 5 all npt temp 300 300 50 iso 1.0 1.0 500

run 300000
Generated 0 of 1 mixed pair_coeff terms from geometric mixing rule
Step          Temp          Press          PotEng        Density         KinEng         TotEng           Lx             Ly             Lz            Xlo            Xhi            Ylo            Yhi            Zlo            Zhi           Volume           Dt            Time           CPU           T/CPU          S/CPU         CPULeft
15510000   1387.7332      296.11164     -10493958       2.6448164      4132.4324     -10489826       533.51394      533.51394      533.51394      1733.243       2266.757       1733.243       2266.757       1733.243       2266.757       1.5185788e+08  0.5            7960000        0              0              0              0
Averages over the last 751 of 1501 rows, steps 15660000 to 15810000:
Temp Press PotEng Density KinEng TotEng Lx Ly Lz Xlo Xhi Ylo Yhi Zlo Zhi Volume Dt
300.066 1.22761 -1.05595e+07 2.63894 893.546 -1.05586e+07 533.91 533.91 533.91 1733.05 2266.95 1733.05 2266.95 1733.05 2266.95 1.52196e+08 0.5
Loop time of 33.9608 on 4 procs for 300000 steps with 1000 atoms

# run_style
run_style verlet

# write restart
write_restart ./pgnpmf/91/equpmf22.res
System init for write_restart ...
Generated 0 of 1 mixed pair_coeff terms from geometric mixing rule
