LAMMPS (23 Jun 2022 - Update 1)
# Read restart
read_restart ./pgnpmf/91/equpmf57.res
Reading restart file ...
  restart file = 23 Jun 2022, LAMMPS = 23 Jun 2022
  restoring atom style atomic from restart
  orthogonal box = (1733.1587 1733.1587 1733.1587) to (2266.8413 2266.8413 2266.8413)
  restoring pair style table from restart
  1000 atoms
  read_restart CPU = 0.005 seconds

# Settings

pair_style table spline 9941

pair_coeff 1 1 ./pgnpmf/N20.txt DE_GNP 75.6
pair_coeff 2 2 ./pgnpmf/N100.txt DE_GNP 115.92
pair_coeff 1 2 ./pgnpmf/mixed_potential.txt DE_GNP 95.66

#Neigh_list Calc Frequency

neigh_modify delay 0 every 1 check yes

# Saving Frequency (50 frames)

variable ts_save equal 5000

# Dump
#dump_modify 1 first no sort id
dump 2 all cfg 50000 ./pgnpmf/91/equilibration/trajectory/dumpgen.tens_*.cfg mass type xs ys zs fx fy fz
dump_modify 2 element N20 N100

# thermo_style
thermo_style custom step temp press pe density ke etotal lx ly lz xlo xhi ylo yhi zlo zhi vol dt time cpu tpcpu spcpu cpuremain

# run info
timestep 0.5
thermo 200

# fix

fix 1 all momentum 1000 linear 1 1 1 angular
variable T equal 300
fix 2 all nvt temp 300 370000 100.0

run 100000
Generated 0 of 1 mixed pair_coeff terms from geometric mixing rule
Unused restart file global fix info:
  fix style: npt, fix ID: 5
  update every 1 steps, delay 0 steps, check yes
Step          Temp          Press          PotEng        Density         KinEng         TotEng           Lx             Ly             Lz            Xlo            Xhi            Ylo            Yhi            Zlo            Zhi           Volume           Dt            Time           CPU           T/CPU          S/CPU         CPULeft
40310000   295.47173     -2.7026828     -10591901       2.6423098      879.86436     -10591021       533.6826       533.6826       533.6826       1733.1587      2266.8413      1733.1587      2266.8413      1733.1587      2266.8413      1.5200194e+08  0.5            20360000       0              0              0              0
Averages over the last 251 of 501 rows, steps 40360000 to 40410000:
Temp Press PotEng Density KinEng TotEng Lx Ly Lz Xlo Xhi Ylo Yhi Zlo Zhi Volume Dt
277312 3976.99 -9.85073e+06 2.64231 825787 -9.02494e+06 533.683 533.683 533.683 1733.16 2266.84 1733.16 2266.84 1733.16 2266.84 1.52002e+08 0.5
Loop time of 10.336 on 4 procs for 100000 steps with 1000 atoms

unfix 2

fix 3 all nvt temp 370000 370000 $(100.0*dt) #iso 1.0 1.0 $(1000.0*dt)
fix 3 all nvt temp 370000 370000 50

run 200000
Generated 0 of 1 mixed pair_coeff terms from geometric mixing rule
Step          Temp          Press          PotEng        Density         KinEng         TotEng           Lx             Ly             Lz            Xlo            Xhi            Ylo            Yhi            Zlo            Zhi           Volume           Dt            Time           CPU           T/CPU          S/CPU         CPULeft
40410000   357291.21      4930.9183     -9641884.1      2.6423098      1063952.2     -8577931.9      533.6826       533.6826       533.6826       1733.1587      2266.8413      1733.1587      2266.8413      1733.1587      2266.8413      1.5200194e+08  0.5            20410000       0              0              0              0
Averages over the last 501 of 1001 rows, steps 40510000 to 40610000:
Temp Press PotEng Density KinEng TotEng Lx Ly Lz Xlo Xhi Ylo Yhi Zlo Zhi Volume Dt
369940 4964.24 -9.59227e+06 2.64231 1.10162e+06 -8.49066e+06 533.683 533.683 533.683 1733.16 2266.84 1733.16 2266.84 1733.16 2266.84 1.52002e+08 0.5
Loop time of 20.4227 on 4 procs for 200000 steps with 1000 atoms

unfix 3

fix 4 all nvt temp 370000 300 100.0

run 100000
Generated 0 of 1 mixed pair_coeff terms from geometric mixing rule
Step          Temp          Press          PotEng        Density         KinEng         TotEng           Lx             Ly             Lz            Xlo            Xhi            Ylo            Yhi            Zlo            Zhi           Volume           Dt            Time           CPU           T/CPU          S/CPU         CPULeft
40610000   373499.62      5007.0747     -9561885.8      2.6423098      1112218.1     -8449667.7      533.6826       533.6826       533.6826       1733.1587      2266.8413      1733.1587      2266.8413      1733.1587      2266.8413      1.5200194e+08  0.5            20510000       0              0              0              0
Averages over the last 251 of 501 rows, steps 40660000 to 40710000:
Temp Press PotEng Density KinEng TotEng Lx Ly Lz Xlo Xhi Ylo Yhi Zlo Zhi Volume Dt
92967.4 1429.85 -1.03337e+07 2.64231 276841 -1.00569e+07 533.683 533.683 533.683 1733.16 2266.84 1733.16 2266.84 1733.16 2266.84 1.52002e+08 0.5
Loop time of 9.9678 on 4 procs for 100000 steps with 1000 atoms

unfix 4

fix 5 all npt temp 300 300 $(100.0*dt) iso 1.0 1.0 $(1000.0*dt)
fix 5 all npt temp 300 300 50 iso 1.0 1.0 $(1000.0*dt)
fix 5 all npt temp 300 300 50 iso 1.0 1.0 500

run 300000
Generated 0 of 1 mixed pair_coeff terms from geometric mixing rule
Step          Temp          Press          PotEng        Density         KinEng         TotEng           Lx             Ly             Lz            Xlo            Xhi            Ylo            Yhi            Zlo            Zhi           Volume           Dt            Time           CPU           T/CPU          S/CPU         CPULeft
40710000   1396.378       108.19855     -10580206       2.6423098      4158.1754     -10576048       533.6826       533.6826       533.6826       1733.1587      2266.8413      1733.1587      2266.8413      1733.1587      2266.8413      1.5200194e+08  0.5            20560000       0              0              0              0
Averages over the last 751 of 1501 rows, steps 40860000 to 41010000:
Temp Press PotEng Density KinEng TotEng Lx Ly Lz Xlo Xhi Ylo Yhi Zlo Zhi Volume Dt
300.094 1.04111 -1.06234e+07 2.64409 893.629 -1.06225e+07 533.563 533.563 533.563 1733.22 2266.78 1733.22 2266.78 1733.22 2266.78 1.519e+08 0.5
Loop time of 34.3315 on 4 procs for 300000 steps with 1000 atoms

# run_style
run_style verlet

# write restart
write_restart ./pgnpmf/91/equpmf58.res
System init for write_restart ...
Generated 0 of 1 mixed pair_coeff terms from geometric mixing rule
