LAMMPS (23 Jun 2022 - Update 1)
# Read restart
read_restart ./pgnpmf/91/equpmf14.res
Reading restart file ...
  restart file = 23 Jun 2022, LAMMPS = 23 Jun 2022
  restoring atom style atomic from restart
  orthogonal box = (1732.4497 1732.4497 1732.4497) to (2267.5503 2267.5503 2267.5503)
  restoring pair style table from restart
  1000 atoms
  read_restart CPU = 0.004 seconds

# Settings

pair_style table spline 9941

pair_coeff 1 1 ./pgnpmf/N20.txt DE_GNP 75.6
pair_coeff 2 2 ./pgnpmf/N100.txt DE_GNP 115.92
pair_coeff 1 2 ./pgnpmf/mixed_potential.txt DE_GNP 95.66

#Neigh_list Calc Frequency

neigh_modify delay 0 every 1 check yes

# Saving Frequency (50 frames)

variable ts_save equal 5000

# Dump
#dump_modify 1 first no sort id
dump 2 all cfg 50000 ./pgnpmf/91/equilibration/trajectory/dumpgen.tens_*.cfg mass type xs ys zs fx fy fz
dump_modify 2 element N20 N100

# thermo_style
thermo_style custom step temp press pe density ke etotal lx ly lz xlo xhi ylo yhi zlo zhi vol dt time cpu tpcpu spcpu cpuremain

# run info
timestep 0.5
thermo 200

# fix

fix 1 all momentum 1000 linear 1 1 1 angular
variable T equal 300
fix 2 all nvt temp 300 370000 100.0

run 100000
Generated 0 of 1 mixed pair_coeff terms from geometric mixing rule
Unused restart file global fix info:
  fix style: npt, fix ID: 5
  update every 1 steps, delay 0 steps, check yes
Step          Temp          Press          PotEng        Density         KinEng         TotEng           Lx             Ly             Lz            Xlo            Xhi            Ylo            Yhi            Zlo            Zhi           Volume           Dt            Time           CPU           T/CPU          S/CPU         CPULeft
10210000   305.41091     -9.0390417     -10547705       2.6213587      909.46153     -10546795       535.10064      535.10064      535.10064      1732.4497      2267.5503      1732.4497      2267.5503      1732.4497      2267.5503      1.5321681e+08  0.5            5310000        0              0              0              0
Averages over the last 251 of 501 rows, steps 10260000 to 10310000:
Temp Press PotEng Density KinEng TotEng Lx Ly Lz Xlo Xhi Ylo Yhi Zlo Zhi Volume Dt
277449 4002.84 -9.72403e+06 2.62136 826196 -8.89783e+06 535.101 535.101 535.101 1732.45 2267.55 1732.45 2267.55 1732.45 2267.55 1.53217e+08 0.5
Loop time of 9.86329 on 4 procs for 100000 steps with 1000 atoms

unfix 2

fix 3 all nvt temp 370000 370000 $(100.0*dt) #iso 1.0 1.0 $(1000.0*dt)
fix 3 all nvt temp 370000 370000 50

run 200000
Generated 0 of 1 mixed pair_coeff terms from geometric mixing rule
Step          Temp          Press          PotEng        Density         KinEng         TotEng           Lx             Ly             Lz            Xlo            Xhi            Ylo            Yhi            Zlo            Zhi           Volume           Dt            Time           CPU           T/CPU          S/CPU         CPULeft
10310000   374173.45      4765.6538     -9531906.3      2.6213587      1114224.6     -8417681.7      535.10064      535.10064      535.10064      1732.4497      2267.5503      1732.4497      2267.5503      1732.4497      2267.5503      1.5321681e+08  0.5            5360000        0              0              0              0
Averages over the last 501 of 1001 rows, steps 10410000 to 10510000:
Temp Press PotEng Density KinEng TotEng Lx Ly Lz Xlo Xhi Ylo Yhi Zlo Zhi Volume Dt
370156 4907.94 -9.47014e+06 2.62136 1.10226e+06 -8.36787e+06 535.101 535.101 535.101 1732.45 2267.55 1732.45 2267.55 1732.45 2267.55 1.53217e+08 0.5
Loop time of 20.0647 on 4 procs for 200000 steps with 1000 atoms

unfix 3

fix 4 all nvt temp 370000 300 100.0

run 100000
Generated 0 of 1 mixed pair_coeff terms from geometric mixing rule
Step          Temp          Press          PotEng        Density         KinEng         TotEng           Lx             Ly             Lz            Xlo            Xhi            Ylo            Yhi            Zlo            Zhi           Volume           Dt            Time           CPU           T/CPU          S/CPU         CPULeft
10510000   370007.28      4913.8873     -9496115.3      2.6213587      1101818.5     -8394296.8      535.10064      535.10064      535.10064      1732.4497      2267.5503      1732.4497      2267.5503      1732.4497      2267.5503      1.5321681e+08  0.5            5460000        0              0              0              0
Averages over the last 251 of 501 rows, steps 10560000 to 10610000:
Temp Press PotEng Density KinEng TotEng Lx Ly Lz Xlo Xhi Ylo Yhi Zlo Zhi Volume Dt
93159.9 1381.8 -1.02141e+07 2.62136 277414 -9.93667e+06 535.101 535.101 535.101 1732.45 2267.55 1732.45 2267.55 1732.45 2267.55 1.53217e+08 0.5
Loop time of 10.0123 on 4 procs for 100000 steps with 1000 atoms

unfix 4

fix 5 all npt temp 300 300 $(100.0*dt) iso 1.0 1.0 $(1000.0*dt)
fix 5 all npt temp 300 300 50 iso 1.0 1.0 $(1000.0*dt)
fix 5 all npt temp 300 300 50 iso 1.0 1.0 500

run 300000
Generated 0 of 1 mixed pair_coeff terms from geometric mixing rule
Step          Temp          Press          PotEng        Density         KinEng         TotEng           Lx             Ly             Lz            Xlo            Xhi            Ylo            Yhi            Zlo            Zhi           Volume           Dt            Time           CPU           T/CPU          S/CPU         CPULeft
10610000   1390.9003      73.144307     -10443363       2.6213587      4141.8636     -10439221       535.10064      535.10064      535.10064      1732.4497      2267.5503      1732.4497      2267.5503      1732.4497      2267.5503      1.5321681e+08  0.5            5510000        0              0              0              0
Averages over the last 751 of 1501 rows, steps 10760000 to 10910000:
Temp Press PotEng Density KinEng TotEng Lx Ly Lz Xlo Xhi Ylo Yhi Zlo Zhi Volume Dt
300.319 1.16888 -1.05039e+07 2.62602 894.298 -1.0503e+07 534.784 534.784 534.784 1732.61 2267.39 1732.61 2267.39 1732.61 2267.39 1.52945e+08 0.5
Loop time of 34.1541 on 4 procs for 300000 steps with 1000 atoms

# run_style
run_style verlet

# write restart
write_restart ./pgnpmf/91/equpmf15.res
System init for write_restart ...
Generated 0 of 1 mixed pair_coeff terms from geometric mixing rule
