LAMMPS (23 Jun 2022 - Update 1)
# Read restart
read_restart ./pgnpmf/91/equpmf23.res
Reading restart file ...
  restart file = 23 Jun 2022, LAMMPS = 23 Jun 2022
  restoring atom style atomic from restart
  orthogonal box = (1733.3306 1733.3306 1733.3306) to (2266.6694 2266.6694 2266.6694)
  restoring pair style table from restart
  1000 atoms
  read_restart CPU = 0.004 seconds

# Settings

pair_style table spline 9941

pair_coeff 1 1 ./pgnpmf/N20.txt DE_GNP 75.6
pair_coeff 2 2 ./pgnpmf/N100.txt DE_GNP 115.92
pair_coeff 1 2 ./pgnpmf/mixed_potential.txt DE_GNP 95.66

#Neigh_list Calc Frequency

neigh_modify delay 0 every 1 check yes

# Saving Frequency (50 frames)

variable ts_save equal 5000

# Dump
#dump_modify 1 first no sort id
dump 2 all cfg 50000 ./pgnpmf/91/equilibration/trajectory/dumpgen.tens_*.cfg mass type xs ys zs fx fy fz
dump_modify 2 element N20 N100

# thermo_style
thermo_style custom step temp press pe density ke etotal lx ly lz xlo xhi ylo yhi zlo zhi vol dt time cpu tpcpu spcpu cpuremain

# run info
timestep 0.5
thermo 200

# fix

fix 1 all momentum 1000 linear 1 1 1 angular
variable T equal 300
fix 2 all nvt temp 300 370000 100.0

run 100000
Generated 0 of 1 mixed pair_coeff terms from geometric mixing rule
Unused restart file global fix info:
  fix style: npt, fix ID: 5
  update every 1 steps, delay 0 steps, check yes
Step          Temp          Press          PotEng        Density         KinEng         TotEng           Lx             Ly             Lz            Xlo            Xhi            Ylo            Yhi            Zlo            Zhi           Volume           Dt            Time           CPU           T/CPU          S/CPU         CPULeft
16510000   310.7806      -3.6837727     -10556023       2.6474241      925.45157     -10555098       533.33872      533.33872      533.33872      1733.3306      2266.6694      1733.3306      2266.6694      1733.3306      2266.6694      1.517083e+08   0.5            8460000        0              0              0              0
Averages over the last 251 of 501 rows, steps 16560000 to 16610000:
Temp Press PotEng Density KinEng TotEng Lx Ly Lz Xlo Xhi Ylo Yhi Zlo Zhi Volume Dt
277171 4115.99 -9.77398e+06 2.64742 825367 -8.94862e+06 533.339 533.339 533.339 1733.33 2266.67 1733.33 2266.67 1733.33 2266.67 1.51708e+08 0.5
Loop time of 10.1005 on 4 procs for 100000 steps with 1000 atoms

unfix 2

fix 3 all nvt temp 370000 370000 $(100.0*dt) #iso 1.0 1.0 $(1000.0*dt)
fix 3 all nvt temp 370000 370000 50

run 200000
Generated 0 of 1 mixed pair_coeff terms from geometric mixing rule
Step          Temp          Press          PotEng        Density         KinEng         TotEng           Lx             Ly             Lz            Xlo            Xhi            Ylo            Yhi            Zlo            Zhi           Volume           Dt            Time           CPU           T/CPU          S/CPU         CPULeft
16610000   375419.98      5039.8924     -9528145.7      2.6474241      1117936.6     -8410209.2      533.33872      533.33872      533.33872      1733.3306      2266.6694      1733.3306      2266.6694      1733.3306      2266.6694      1.517083e+08   0.5            8510000        0              0              0              0
Averages over the last 501 of 1001 rows, steps 16710000 to 16810000:
Temp Press PotEng Density KinEng TotEng Lx Ly Lz Xlo Xhi Ylo Yhi Zlo Zhi Volume Dt
369934 5041.24 -9.53945e+06 2.64742 1.1016e+06 -8.43785e+06 533.339 533.339 533.339 1733.33 2266.67 1733.33 2266.67 1733.33 2266.67 1.51708e+08 0.5
Loop time of 20.362 on 4 procs for 200000 steps with 1000 atoms

unfix 3

fix 4 all nvt temp 370000 300 100.0

run 100000
Generated 0 of 1 mixed pair_coeff terms from geometric mixing rule
Step          Temp          Press          PotEng        Density         KinEng         TotEng           Lx             Ly             Lz            Xlo            Xhi            Ylo            Yhi            Zlo            Zhi           Volume           Dt            Time           CPU           T/CPU          S/CPU         CPULeft
16810000   365287.87      4992.9806     -9554141.5      2.6474241      1087764.9     -8466376.6      533.33872      533.33872      533.33872      1733.3306      2266.6694      1733.3306      2266.6694      1733.3306      2266.6694      1.517083e+08   0.5            8610000        0              0              0              0
Averages over the last 251 of 501 rows, steps 16860000 to 16910000:
Temp Press PotEng Density KinEng TotEng Lx Ly Lz Xlo Xhi Ylo Yhi Zlo Zhi Volume Dt
93061.3 1534.61 -1.02476e+07 2.64742 277121 -9.97052e+06 533.339 533.339 533.339 1733.33 2266.67 1733.33 2266.67 1733.33 2266.67 1.51708e+08 0.5
Loop time of 10.0226 on 4 procs for 100000 steps with 1000 atoms

unfix 4

fix 5 all npt temp 300 300 $(100.0*dt) iso 1.0 1.0 $(1000.0*dt)
fix 5 all npt temp 300 300 50 iso 1.0 1.0 $(1000.0*dt)
fix 5 all npt temp 300 300 50 iso 1.0 1.0 500

run 300000
Generated 0 of 1 mixed pair_coeff terms from geometric mixing rule
Step          Temp          Press          PotEng        Density         KinEng         TotEng           Lx             Ly             Lz            Xlo            Xhi            Ylo            Yhi            Zlo            Zhi           Volume           Dt            Time           CPU           T/CPU          S/CPU         CPULeft
16910000   1406.0617      226.41756     -10494858       2.6474241      4187.0116     -10490671       533.33872      533.33872      533.33872      1733.3306      2266.6694      1733.3306      2266.6694      1733.3306      2266.6694      1.517083e+08   0.5            8660000        0              0              0              0
Averages over the last 751 of 1501 rows, steps 17060000 to 17210000:
Temp Press PotEng Density KinEng TotEng Lx Ly Lz Xlo Xhi Ylo Yhi Zlo Zhi Volume Dt
300.11 1.33442 -1.05607e+07 2.64636 893.676 -1.05598e+07 533.41 533.41 533.41 1733.29 2266.71 1733.29 2266.71 1733.29 2266.71 1.51769e+08 0.5
Loop time of 33.9473 on 4 procs for 300000 steps with 1000 atoms

# run_style
run_style verlet

# write restart
write_restart ./pgnpmf/91/equpmf24.res
System init for write_restart ...
Generated 0 of 1 mixed pair_coeff terms from geometric mixing rule
