LAMMPS (23 Jun 2022 - Update 1)
# Read restart
read_restart ./pgnpmf/91/equpmf49.res
Reading restart file ...
  restart file = 23 Jun 2022, LAMMPS = 23 Jun 2022
  restoring atom style atomic from restart
  orthogonal box = (1733.3652 1733.3652 1733.3652) to (2266.6348 2266.6348 2266.6348)
  restoring pair style table from restart
  1000 atoms
  read_restart CPU = 0.004 seconds

# Settings

pair_style table spline 9941

pair_coeff 1 1 ./pgnpmf/N20.txt DE_GNP 75.6
pair_coeff 2 2 ./pgnpmf/N100.txt DE_GNP 115.92
pair_coeff 1 2 ./pgnpmf/mixed_potential.txt DE_GNP 95.66

#Neigh_list Calc Frequency

neigh_modify delay 0 every 1 check yes

# Saving Frequency (50 frames)

variable ts_save equal 5000

# Dump
#dump_modify 1 first no sort id
dump 2 all cfg 50000 ./pgnpmf/91/equilibration/trajectory/dumpgen.tens_*.cfg mass type xs ys zs fx fy fz
dump_modify 2 element N20 N100

# thermo_style
thermo_style custom step temp press pe density ke etotal lx ly lz xlo xhi ylo yhi zlo zhi vol dt time cpu tpcpu spcpu cpuremain

# run info
timestep 0.5
thermo 200

# fix

fix 1 all momentum 1000 linear 1 1 1 angular
variable T equal 300
fix 2 all nvt temp 300 370000 100.0

run 100000
Generated 0 of 1 mixed pair_coeff terms from geometric mixing rule
Unused restart file global fix info:
  fix style: npt, fix ID: 5
  update every 1 steps, delay 0 steps, check yes
Step          Temp          Press          PotEng        Density         KinEng         TotEng           Lx             Ly             Lz            Xlo            Xhi            Ylo            Yhi            Zlo            Zhi           Volume           Dt            Time           CPU           T/CPU          S/CPU         CPULeft
34710000   299.84554      4.3124536     -10612330       2.6484531      892.88882     -10611437       533.26964      533.26964      533.26964      1733.3652      2266.6348      1733.3652      2266.6348      1733.3652      2266.6348      1.5164935e+08  0.5            17560000       0              0              0              0
Averages over the last 251 of 501 rows, steps 34760000 to 34810000:
Temp Press PotEng Density KinEng TotEng Lx Ly Lz Xlo Xhi Ylo Yhi Zlo Zhi Volume Dt
277682 4225.9 -9.80468e+06 2.64845 826888 -8.97779e+06 533.27 533.27 533.27 1733.37 2266.63 1733.37 2266.63 1733.37 2266.63 1.51649e+08 0.5
Loop time of 10.0406 on 4 procs for 100000 steps with 1000 atoms

unfix 2

fix 3 all nvt temp 370000 370000 $(100.0*dt) #iso 1.0 1.0 $(1000.0*dt)
fix 3 all nvt temp 370000 370000 50

run 200000
Generated 0 of 1 mixed pair_coeff terms from geometric mixing rule
Step          Temp          Press          PotEng        Density         KinEng         TotEng           Lx             Ly             Lz            Xlo            Xhi            Ylo            Yhi            Zlo            Zhi           Volume           Dt            Time           CPU           T/CPU          S/CPU         CPULeft
34810000   374327.49      5028.5517     -9593562.5      2.6484531      1114683.4     -8478879.1      533.26964      533.26964      533.26964      1733.3652      2266.6348      1733.3652      2266.6348      1733.3652      2266.6348      1.5164935e+08  0.5            17610000       0              0              0              0
Averages over the last 501 of 1001 rows, steps 34910000 to 35010000:
Temp Press PotEng Density KinEng TotEng Lx Ly Lz Xlo Xhi Ylo Yhi Zlo Zhi Volume Dt
369967 4968.89 -9.5757e+06 2.64845 1.1017e+06 -8.474e+06 533.27 533.27 533.27 1733.37 2266.63 1733.37 2266.63 1733.37 2266.63 1.51649e+08 0.5
Loop time of 20.4257 on 4 procs for 200000 steps with 1000 atoms

unfix 3

fix 4 all nvt temp 370000 300 100.0

run 100000
Generated 0 of 1 mixed pair_coeff terms from geometric mixing rule
Step          Temp          Press          PotEng        Density         KinEng         TotEng           Lx             Ly             Lz            Xlo            Xhi            Ylo            Yhi            Zlo            Zhi           Volume           Dt            Time           CPU           T/CPU          S/CPU         CPULeft
35010000   384067.49      5102.9443     -9583988        2.6484531      1143687.4     -8440300.6      533.26964      533.26964      533.26964      1733.3652      2266.6348      1733.3652      2266.6348      1733.3652      2266.6348      1.5164935e+08  0.5            17710000       0              0              0              0
Averages over the last 251 of 501 rows, steps 35060000 to 35110000:
Temp Press PotEng Density KinEng TotEng Lx Ly Lz Xlo Xhi Ylo Yhi Zlo Zhi Volume Dt
93071.7 1466.08 -1.02833e+07 2.64845 277152 -1.00062e+07 533.27 533.27 533.27 1733.37 2266.63 1733.37 2266.63 1733.37 2266.63 1.51649e+08 0.5
Loop time of 9.86319 on 4 procs for 100000 steps with 1000 atoms

unfix 4

fix 5 all npt temp 300 300 $(100.0*dt) iso 1.0 1.0 $(1000.0*dt)
fix 5 all npt temp 300 300 50 iso 1.0 1.0 $(1000.0*dt)
fix 5 all npt temp 300 300 50 iso 1.0 1.0 500

run 300000
Generated 0 of 1 mixed pair_coeff terms from geometric mixing rule
Step          Temp          Press          PotEng        Density         KinEng         TotEng           Lx             Ly             Lz            Xlo            Xhi            Ylo            Yhi            Zlo            Zhi           Volume           Dt            Time           CPU           T/CPU          S/CPU         CPULeft
35110000   1396.0793      126.64959     -10521912       2.6484531      4157.2857     -10517755       533.26964      533.26964      533.26964      1733.3652      2266.6348      1733.3652      2266.6348      1733.3652      2266.6348      1.5164935e+08  0.5            17760000       0              0              0              0
Averages over the last 751 of 1501 rows, steps 35260000 to 35410000:
Temp Press PotEng Density KinEng TotEng Lx Ly Lz Xlo Xhi Ylo Yhi Zlo Zhi Volume Dt
300.079 1.02355 -1.06161e+07 2.65146 893.583 -1.06152e+07 533.068 533.068 533.068 1733.47 2266.53 1733.47 2266.53 1733.47 2266.53 1.51478e+08 0.5
Loop time of 33.069 on 4 procs for 300000 steps with 1000 atoms

# run_style
run_style verlet

# write restart
write_restart ./pgnpmf/91/equpmf50.res
System init for write_restart ...
Generated 0 of 1 mixed pair_coeff terms from geometric mixing rule
