LAMMPS (23 Jun 2022 - Update 1)
# Read restart
read_restart ./pgnpmf/91/genpmf.res
Reading restart file ...
  restart file = 23 Jun 2022, LAMMPS = 23 Jun 2022
  restoring atom style atomic from restart
  orthogonal box = (-100 -100 -100) to (4100 4100 4100)
  restoring pair style table from restart
  1000 atoms
  read_restart CPU = 0.004 seconds

# Settings

pair_style table spline 9941

pair_coeff 1 1 ./pgnpmf/N20.txt DE_GNP 75.6
pair_coeff 2 2 ./pgnpmf/N100.txt DE_GNP 115.92
pair_coeff 1 2 ./pgnpmf/mixed_potential.txt DE_GNP 95.66

#Neigh_list Calc Frequency

neigh_modify delay 0 every 1 check yes

# Saving Frequency (50 frames)

variable ts_save equal 5000

# Dump
#dump_modify 1 first no sort id
dump 2 all cfg 50000 ./pgnpmf/91/equilibration/trajectory/dumpgen.tens_*.cfg mass type xs ys zs fx fy fz
dump_modify 2 element N20 N100

# thermo_style
thermo_style custom step temp press pe density ke etotal lx ly lz xlo xhi ylo yhi zlo zhi vol dt time cpu tpcpu spcpu cpuremain

# run info
timestep 0.5
thermo 200

# fix

fix 1 all momentum 1000 linear 1 1 1 angular
variable T equal 300
fix 2 all nvt temp 300 370000 100.0
  fix style: nvt, fix ID: 2

run 100000
Generated 0 of 1 mixed pair_coeff terms from geometric mixing rule
Unused restart file global fix info:
  fix style: nvt, fix ID: 3
  fix style: nvt, fix ID: 4
  update every 1 steps, delay 0 steps, check yes
Step          Temp          Press          PotEng        Density         KinEng         TotEng           Lx             Ly             Lz            Xlo            Xhi            Ylo            Yhi            Zlo            Zhi           Volume           Dt            Time           CPU           T/CPU          S/CPU         CPULeft
410000   32914.623      0.058566966   -14712.946      0.0054210697   98014.128      83301.182      4200           4200           4200          -100            4100          -100            4100          -100            4100           7.4088e+10     0.5            410000         0              0              0              0
Averages over the last 251 of 501 rows, steps 460000 to 510000:
Temp Press PotEng Density KinEng TotEng Lx Ly Lz Xlo Xhi Ylo Yhi Zlo Zhi Volume Dt
277607 0.509742 -6993.77 0.00542107 826667 819673 4200 4200 4200 -100 4100 -100 4100 -100 4100 7.4088e+10 0.5
Loop time of 3.17858 on 1 procs for 100000 steps with 1000 atoms

unfix 2

fix 3 all nvt temp 370000 370000 $(100.0*dt) #iso 1.0 1.0 $(1000.0*dt)
fix 3 all nvt temp 370000 370000 50

run 200000
Generated 0 of 1 mixed pair_coeff terms from geometric mixing rule
Step          Temp          Press          PotEng        Density         KinEng         TotEng           Lx             Ly             Lz            Xlo            Xhi            Ylo            Yhi            Zlo            Zhi           Volume           Dt            Time           CPU           T/CPU          S/CPU         CPULeft
510000   362074.62      0.67044595    -2614.7346      0.0054210697   1078196.4      1075581.7      4200           4200           4200          -100            4100          -100            4100          -100            4100           7.4088e+10     0.5            460000         0              0              0              0
Averages over the last 501 of 1001 rows, steps 610000 to 710000:
Temp Press PotEng Density KinEng TotEng Lx Ly Lz Xlo Xhi Ylo Yhi Zlo Zhi Volume Dt
370088 0.683132 -10793.6 0.00542107 1.10206e+06 1.09127e+06 4200 4200 4200 -100 4100 -100 4100 -100 4100 7.4088e+10 0.5
Loop time of 6.18114 on 1 procs for 200000 steps with 1000 atoms

unfix 3

fix 4 all nvt temp 370000 300 100.0

run 100000
Generated 0 of 1 mixed pair_coeff terms from geometric mixing rule
Step          Temp          Press          PotEng        Density         KinEng         TotEng           Lx             Ly             Lz            Xlo            Xhi            Ylo            Yhi            Zlo            Zhi           Volume           Dt            Time           CPU           T/CPU          S/CPU         CPULeft
710000   366995.46      0.68658572    -7513.8284      0.0054210697   1092849.8      1085336        4200           4200           4200          -100            4100          -100            4100          -100            4100           7.4088e+10     0.5            560000         0              0              0              0
Averages over the last 251 of 501 rows, steps 760000 to 810000:
Temp Press PotEng Density KinEng TotEng Lx Ly Lz Xlo Xhi Ylo Yhi Zlo Zhi Volume Dt
92890.1 0.167879 -19149.2 0.00542107 276611 257462 4200 4200 4200 -100 4100 -100 4100 -100 4100 7.4088e+10 0.5
Loop time of 3.04839 on 1 procs for 100000 steps with 1000 atoms

unfix 4

fix 5 all npt temp 300 300 $(100.0*dt) iso 1.0 1.0 $(1000.0*dt)
fix 5 all npt temp 300 300 50 iso 1.0 1.0 $(1000.0*dt)
fix 5 all npt temp 300 300 50 iso 1.0 1.0 500

run 300000
Generated 0 of 1 mixed pair_coeff terms from geometric mixing rule
Step          Temp          Press          PotEng        Density         KinEng         TotEng           Lx             Ly             Lz            Xlo            Xhi            Ylo            Yhi            Zlo            Zhi           Volume           Dt            Time           CPU           T/CPU          S/CPU         CPULeft
810000   1110.7255     -0.0065777586  -21918.446      0.0054210697   3307.551      -18610.895      4200           4200           4200          -100            4100          -100            4100          -100            4100           7.4088e+10     0.5            610000         0              0              0              0
Averages over the last 751 of 1501 rows, steps 960000 to 1110000:
Temp Press PotEng Density KinEng TotEng Lx Ly Lz Xlo Xhi Ylo Yhi Zlo Zhi Volume Dt
316.255 1.00008 -433174 0.0924261 941.754 -432232 1645.53 1645.53 1645.53 1177.24 2822.76 1177.24 2822.76 1177.24 2822.76 4.51293e+09 0.5
Loop time of 21.9355 on 1 procs for 300000 steps with 1000 atoms

# run_style
run_style verlet

# write restart
write_restart ./pgnpmf/91/equpmf1.res
System init for write_restart ...
Generated 0 of 1 mixed pair_coeff terms from geometric mixing rule
