LAMMPS (23 Jun 2022 - Update 1)
# Read restart
read_restart ./pgnpmf/91/equpmf47.res
Reading restart file ...
  restart file = 23 Jun 2022, LAMMPS = 23 Jun 2022
  restoring atom style atomic from restart
  orthogonal box = (1733.1785 1733.1785 1733.1785) to (2266.8215 2266.8215 2266.8215)
  restoring pair style table from restart
  1000 atoms
  read_restart CPU = 0.005 seconds

# Settings

pair_style table spline 9941

pair_coeff 1 1 ./pgnpmf/N20.txt DE_GNP 75.6
pair_coeff 2 2 ./pgnpmf/N100.txt DE_GNP 115.92
pair_coeff 1 2 ./pgnpmf/mixed_potential.txt DE_GNP 95.66

#Neigh_list Calc Frequency

neigh_modify delay 0 every 1 check yes

# Saving Frequency (50 frames)

variable ts_save equal 5000

# Dump
#dump_modify 1 first no sort id
dump 2 all cfg 50000 ./pgnpmf/91/equilibration/trajectory/dumpgen.tens_*.cfg mass type xs ys zs fx fy fz
dump_modify 2 element N20 N100

# thermo_style
thermo_style custom step temp press pe density ke etotal lx ly lz xlo xhi ylo yhi zlo zhi vol dt time cpu tpcpu spcpu cpuremain

# run info
timestep 0.5
thermo 200

# fix

fix 1 all momentum 1000 linear 1 1 1 angular
variable T equal 300
fix 2 all nvt temp 300 370000 100.0

run 100000
Generated 0 of 1 mixed pair_coeff terms from geometric mixing rule
Unused restart file global fix info:
  fix style: npt, fix ID: 5
  update every 1 steps, delay 0 steps, check yes
Step          Temp          Press          PotEng        Density         KinEng         TotEng           Lx             Ly             Lz            Xlo            Xhi            Ylo            Yhi            Zlo            Zhi           Volume           Dt            Time           CPU           T/CPU          S/CPU         CPULeft
33310000   314.13649     -3.373636      -10572058       2.6428967      935.44481     -10571123       533.64309      533.64309      533.64309      1733.1785      2266.8215      1733.1785      2266.8215      1733.1785      2266.8215      1.5196818e+08  0.5            16860000       0              0              0              0
Averages over the last 251 of 501 rows, steps 33360000 to 33410000:
Temp Press PotEng Density KinEng TotEng Lx Ly Lz Xlo Xhi Ylo Yhi Zlo Zhi Volume Dt
277236 4123.34 -9.79196e+06 2.6429 825560 -8.9664e+06 533.643 533.643 533.643 1733.18 2266.82 1733.18 2266.82 1733.18 2266.82 1.51968e+08 0.5
Loop time of 10.0335 on 4 procs for 100000 steps with 1000 atoms

unfix 2

fix 3 all nvt temp 370000 370000 $(100.0*dt) #iso 1.0 1.0 $(1000.0*dt)
fix 3 all nvt temp 370000 370000 50

run 200000
Generated 0 of 1 mixed pair_coeff terms from geometric mixing rule
Step          Temp          Press          PotEng        Density         KinEng         TotEng           Lx             Ly             Lz            Xlo            Xhi            Ylo            Yhi            Zlo            Zhi           Volume           Dt            Time           CPU           T/CPU          S/CPU         CPULeft
33410000   366532.77      5058.9191     -9569456.8      2.6428967      1091472       -8477984.8      533.64309      533.64309      533.64309      1733.1785      2266.8215      1733.1785      2266.8215      1733.1785      2266.8215      1.5196818e+08  0.5            16910000       0              0              0              0
Averages over the last 501 of 1001 rows, steps 33510000 to 33610000:
Temp Press PotEng Density KinEng TotEng Lx Ly Lz Xlo Xhi Ylo Yhi Zlo Zhi Volume Dt
369873 4994.03 -9.5407e+06 2.6429 1.10142e+06 -8.43928e+06 533.643 533.643 533.643 1733.18 2266.82 1733.18 2266.82 1733.18 2266.82 1.51968e+08 0.5
Loop time of 19.9469 on 4 procs for 200000 steps with 1000 atoms

unfix 3

fix 4 all nvt temp 370000 300 100.0

run 100000
Generated 0 of 1 mixed pair_coeff terms from geometric mixing rule
Step          Temp          Press          PotEng        Density         KinEng         TotEng           Lx             Ly             Lz            Xlo            Xhi            Ylo            Yhi            Zlo            Zhi           Volume           Dt            Time           CPU           T/CPU          S/CPU         CPULeft
33610000   367578.15      5126.8933     -9504085.9      2.6428967      1094585       -8409501        533.64309      533.64309      533.64309      1733.1785      2266.8215      1733.1785      2266.8215      1733.1785      2266.8215      1.5196818e+08  0.5            17010000       0              0              0              0
Averages over the last 251 of 501 rows, steps 33660000 to 33710000:
Temp Press PotEng Density KinEng TotEng Lx Ly Lz Xlo Xhi Ylo Yhi Zlo Zhi Volume Dt
93026 1539.2 -1.0276e+07 2.6429 277015 -9.99898e+06 533.643 533.643 533.643 1733.18 2266.82 1733.18 2266.82 1733.18 2266.82 1.51968e+08 0.5
Loop time of 9.98378 on 4 procs for 100000 steps with 1000 atoms

unfix 4

fix 5 all npt temp 300 300 $(100.0*dt) iso 1.0 1.0 $(1000.0*dt)
fix 5 all npt temp 300 300 50 iso 1.0 1.0 $(1000.0*dt)
fix 5 all npt temp 300 300 50 iso 1.0 1.0 500

run 300000
Generated 0 of 1 mixed pair_coeff terms from geometric mixing rule
Step          Temp          Press          PotEng        Density         KinEng         TotEng           Lx             Ly             Lz            Xlo            Xhi            Ylo            Yhi            Zlo            Zhi           Volume           Dt            Time           CPU           T/CPU          S/CPU         CPULeft
33710000   1413.0436      202.27976     -10516857       2.6428967      4207.8027     -10512649       533.64309      533.64309      533.64309      1733.1785      2266.8215      1733.1785      2266.8215      1733.1785      2266.8215      1.5196818e+08  0.5            17060000       0              0              0              0
Averages over the last 751 of 1501 rows, steps 33860000 to 34010000:
Temp Press PotEng Density KinEng TotEng Lx Ly Lz Xlo Xhi Ylo Yhi Zlo Zhi Volume Dt
300.034 0.819441 -1.05856e+07 2.64246 893.45 -1.05847e+07 533.673 533.673 533.673 1733.16 2266.84 1733.16 2266.84 1733.16 2266.84 1.51993e+08 0.5
Loop time of 33.9323 on 4 procs for 300000 steps with 1000 atoms

# run_style
run_style verlet

# write restart
write_restart ./pgnpmf/91/equpmf48.res
System init for write_restart ...
Generated 0 of 1 mixed pair_coeff terms from geometric mixing rule
