LAMMPS (23 Jun 2022 - Update 1)
# Read restart
read_restart ./pgnpmf/91/equpmf51.res
Reading restart file ...
  restart file = 23 Jun 2022, LAMMPS = 23 Jun 2022
  restoring atom style atomic from restart
  orthogonal box = (1733.3997 1733.3997 1733.3997) to (2266.6003 2266.6003 2266.6003)
  restoring pair style table from restart
  1000 atoms
  read_restart CPU = 0.005 seconds

# Settings

pair_style table spline 9941

pair_coeff 1 1 ./pgnpmf/N20.txt DE_GNP 75.6
pair_coeff 2 2 ./pgnpmf/N100.txt DE_GNP 115.92
pair_coeff 1 2 ./pgnpmf/mixed_potential.txt DE_GNP 95.66

#Neigh_list Calc Frequency

neigh_modify delay 0 every 1 check yes

# Saving Frequency (50 frames)

variable ts_save equal 5000

# Dump
#dump_modify 1 first no sort id
dump 2 all cfg 50000 ./pgnpmf/91/equilibration/trajectory/dumpgen.tens_*.cfg mass type xs ys zs fx fy fz
dump_modify 2 element N20 N100

# thermo_style
thermo_style custom step temp press pe density ke etotal lx ly lz xlo xhi ylo yhi zlo zhi vol dt time cpu tpcpu spcpu cpuremain

# run info
timestep 0.5
thermo 200

# fix

fix 1 all momentum 1000 linear 1 1 1 angular
variable T equal 300
fix 2 all nvt temp 300 370000 100.0

run 100000
Generated 0 of 1 mixed pair_coeff terms from geometric mixing rule
Unused restart file global fix info:
  fix style: npt, fix ID: 5
  update every 1 steps, delay 0 steps, check yes
Step          Temp          Press          PotEng        Density         KinEng         TotEng           Lx             Ly             Lz            Xlo            Xhi            Ylo            Yhi            Zlo            Zhi           Volume           Dt            Time           CPU           T/CPU          S/CPU         CPULeft
36110000   305.83005      5.5405091     -10596677       2.6494831      910.70966     -10595766       533.20053      533.20053      533.20053      1733.3997      2266.6003      1733.3997      2266.6003      1733.3997      2266.6003      1.515904e+08   0.5            18260000       0              0              0              0
Averages over the last 251 of 501 rows, steps 36160000 to 36210000:
Temp Press PotEng Density KinEng TotEng Lx Ly Lz Xlo Xhi Ylo Yhi Zlo Zhi Volume Dt
277436 4018.66 -9.8188e+06 2.64948 826157 -8.99265e+06 533.201 533.201 533.201 1733.4 2266.6 1733.4 2266.6 1733.4 2266.6 1.5159e+08 0.5
Loop time of 10.0637 on 4 procs for 100000 steps with 1000 atoms

unfix 2

fix 3 all nvt temp 370000 370000 $(100.0*dt) #iso 1.0 1.0 $(1000.0*dt)
fix 3 all nvt temp 370000 370000 50

run 200000
Generated 0 of 1 mixed pair_coeff terms from geometric mixing rule
Step          Temp          Press          PotEng        Density         KinEng         TotEng           Lx             Ly             Lz            Xlo            Xhi            Ylo            Yhi            Zlo            Zhi           Volume           Dt            Time           CPU           T/CPU          S/CPU         CPULeft
36210000   384916.32      4916.4317     -9605347.8      2.6494831      1146215.1     -8459132.7      533.20053      533.20053      533.20053      1733.3997      2266.6003      1733.3997      2266.6003      1733.3997      2266.6003      1.515904e+08   0.5            18310000       0              0              0              0
Averages over the last 501 of 1001 rows, steps 36310000 to 36410000:
Temp Press PotEng Density KinEng TotEng Lx Ly Lz Xlo Xhi Ylo Yhi Zlo Zhi Volume Dt
370050 4994.56 -9.56807e+06 2.64948 1.10195e+06 -8.46612e+06 533.201 533.201 533.201 1733.4 2266.6 1733.4 2266.6 1733.4 2266.6 1.5159e+08 0.5
Loop time of 20.2516 on 4 procs for 200000 steps with 1000 atoms

unfix 3

fix 4 all nvt temp 370000 300 100.0

run 100000
Generated 0 of 1 mixed pair_coeff terms from geometric mixing rule
Step          Temp          Press          PotEng        Density         KinEng         TotEng           Lx             Ly             Lz            Xlo            Xhi            Ylo            Yhi            Zlo            Zhi           Volume           Dt            Time           CPU           T/CPU          S/CPU         CPULeft
36410000   380908.37      4803.4564     -9615284        2.6494831      1134280.1     -8481004        533.20053      533.20053      533.20053      1733.3997      2266.6003      1733.3997      2266.6003      1733.3997      2266.6003      1.515904e+08   0.5            18410000       0              0              0              0
Averages over the last 251 of 501 rows, steps 36460000 to 36510000:
Temp Press PotEng Density KinEng TotEng Lx Ly Lz Xlo Xhi Ylo Yhi Zlo Zhi Volume Dt
93168.9 1481.57 -1.0263e+07 2.64948 277441 -9.98553e+06 533.201 533.201 533.201 1733.4 2266.6 1733.4 2266.6 1733.4 2266.6 1.5159e+08 0.5
Loop time of 9.94457 on 4 procs for 100000 steps with 1000 atoms

unfix 4

fix 5 all npt temp 300 300 $(100.0*dt) iso 1.0 1.0 $(1000.0*dt)
fix 5 all npt temp 300 300 50 iso 1.0 1.0 $(1000.0*dt)
fix 5 all npt temp 300 300 50 iso 1.0 1.0 500

run 300000
Generated 0 of 1 mixed pair_coeff terms from geometric mixing rule
Step          Temp          Press          PotEng        Density         KinEng         TotEng           Lx             Ly             Lz            Xlo            Xhi            Ylo            Yhi            Zlo            Zhi           Volume           Dt            Time           CPU           T/CPU          S/CPU         CPULeft
36510000   1389.8868      148.54476     -10504459       2.6494831      4138.8454     -10500320       533.20053      533.20053      533.20053      1733.3997      2266.6003      1733.3997      2266.6003      1733.3997      2266.6003      1.515904e+08   0.5            18460000       0              0              0              0
Averages over the last 751 of 1501 rows, steps 36660000 to 36810000:
Temp Press PotEng Density KinEng TotEng Lx Ly Lz Xlo Xhi Ylo Yhi Zlo Zhi Volume Dt
300.029 1.27958 -1.05939e+07 2.64995 893.434 -1.0593e+07 533.169 533.169 533.169 1733.42 2266.58 1733.42 2266.58 1733.42 2266.58 1.51564e+08 0.5
Loop time of 34.13 on 4 procs for 300000 steps with 1000 atoms

# run_style
run_style verlet

# write restart
write_restart ./pgnpmf/91/equpmf52.res
System init for write_restart ...
Generated 0 of 1 mixed pair_coeff terms from geometric mixing rule
