LAMMPS (23 Jun 2022 - Update 1)
# Read restart
read_restart ./pgnpmf/9010/equpmf68.res
Reading restart file ...
  restart file = 23 Jun 2022, LAMMPS = 23 Jun 2022
  restoring atom style atomic from restart
  orthogonal box = (1731.7754 1731.7754 1731.7754) to (2268.2246 2268.2246 2268.2246)
  restoring pair style table from restart
  1000 atoms
  read_restart CPU = 0.006 seconds

# Settings

pair_style table spline 9941

pair_coeff 1 1 ./pgnpmf/N20.txt DE_GNP 75.6
pair_coeff 2 2 ./pgnpmf/N100.txt DE_GNP 115.92
pair_coeff 1 2 ./pgnpmf/mixed_potential.txt DE_GNP 95.66

#Neigh_list Calc Frequency

neigh_modify delay 0 every 1 check yes

# Saving Frequency (50 frames)

variable ts_save equal 5000

# Dump
#dump_modify 1 first no sort id
dump 2 all cfg 50000 ./pgnpmf/9010/equilibration/trajectory/dumpgen.tens_*.cfg mass type xs ys zs fx fy fz
dump_modify 2 element N20 N100

# thermo_style
thermo_style custom step temp press pe density ke etotal lx ly lz xlo xhi ylo yhi zlo zhi vol dt time cpu tpcpu spcpu cpuremain

# run info
timestep 0.1
thermo 10000

# fix

fix 1 all momentum 1000 linear 1 1 1 angular
variable T equal 300
fix 2 all nvt temp 300 370000 100.0

run 200000
Generated 0 of 1 mixed pair_coeff terms from geometric mixing rule
Unused restart file global fix info:
  fix style: npt, fix ID: 5
  update every 1 steps, delay 0 steps, check yes
Step          Temp          Press          PotEng        Density         KinEng         TotEng           Lx             Ly             Lz            Xlo            Xhi            Ylo            Yhi            Zlo            Zhi           Volume           Dt            Time           CPU           T/CPU          S/CPU         CPULeft
82610000   299.90826     -2.7910282     -10364198       2.601639       893.07559     -10363305       536.44921      536.44921      536.44921      1731.7754      2268.2246      1731.7754      2268.2246      1731.7754      2268.2246      1.5437815e+08  0.1            9170000        0              0              0              0
Averages over the last 11 of 21 rows, steps 82710000 to 82810000:
Temp Press PotEng Density KinEng TotEng Lx Ly Lz Xlo Xhi Ylo Yhi Zlo Zhi Volume Dt
276439 3332.96 -9.83648e+06 2.60164 823189 -9.01329e+06 536.449 536.449 536.449 1731.78 2268.22 1731.78 2268.22 1731.78 2268.22 1.54378e+08 0.1
Loop time of 11.8205 on 4 procs for 200000 steps with 1000 atoms

unfix 2

fix 3 all nvt temp 370000 370000 $(100.0*dt) #iso 1.0 1.0 $(1000.0*dt)
fix 3 all nvt temp 370000 370000 10

run 500000
Generated 0 of 1 mixed pair_coeff terms from geometric mixing rule
Step          Temp          Press          PotEng        Density         KinEng         TotEng           Lx             Ly             Lz            Xlo            Xhi            Ylo            Yhi            Zlo            Zhi           Volume           Dt            Time           CPU           T/CPU          S/CPU         CPULeft
82810000   355643.04      4571.8737     -9608044.9      2.601639       1059044.3     -8549000.6      536.44921      536.44921      536.44921      1731.7754      2268.2246      1731.7754      2268.2246      1731.7754      2268.2246      1.5437815e+08  0.1            9190000        0              0              0              0
Averages over the last 26 of 51 rows, steps 83060000 to 83310000:
Temp Press PotEng Density KinEng TotEng Lx Ly Lz Xlo Xhi Ylo Yhi Zlo Zhi Volume Dt
371447 4506.17 -9.50266e+06 2.60164 1.10611e+06 -8.39656e+06 536.449 536.449 536.449 1731.78 2268.22 1731.78 2268.22 1731.78 2268.22 1.54378e+08 0.1
Loop time of 29.769 on 4 procs for 500000 steps with 1000 atoms

unfix 3

fix 4 all nvt temp 370000 300 $(100.0*dt)
fix 4 all nvt temp 370000 300 10

run 200000
Generated 0 of 1 mixed pair_coeff terms from geometric mixing rule
Step          Temp          Press          PotEng        Density         KinEng         TotEng           Lx             Ly             Lz            Xlo            Xhi            Ylo            Yhi            Zlo            Zhi           Volume           Dt            Time           CPU           T/CPU          S/CPU         CPULeft
83310000   372025.34      4386.5004     -9531367.7      2.601639       1107827.9     -8423539.8      536.44921      536.44921      536.44921      1731.7754      2268.2246      1731.7754      2268.2246      1731.7754      2268.2246      1.5437815e+08  0.1            9240000        0              0              0              0
Averages over the last 11 of 21 rows, steps 83410000 to 83510000:
Temp Press PotEng Density KinEng TotEng Lx Ly Lz Xlo Xhi Ylo Yhi Zlo Zhi Volume Dt
92780.2 1379.98 -1.01373e+07 2.60164 276284 -9.86104e+06 536.449 536.449 536.449 1731.78 2268.22 1731.78 2268.22 1731.78 2268.22 1.54378e+08 0.1
Loop time of 11.7371 on 4 procs for 200000 steps with 1000 atoms

unfix 4

fix 5 all npt temp 300 300 $(100.0*dt) iso 1.0 1.0 $(1000.0*dt)
fix 5 all npt temp 300 300 10 iso 1.0 1.0 $(1000.0*dt)
fix 5 all npt temp 300 300 10 iso 1.0 1.0 100

run 300000
Generated 0 of 1 mixed pair_coeff terms from geometric mixing rule
Step          Temp          Press          PotEng        Density         KinEng         TotEng           Lx             Ly             Lz            Xlo            Xhi            Ylo            Yhi            Zlo            Zhi           Volume           Dt            Time           CPU           T/CPU          S/CPU         CPULeft
83510000   525.47593      297.50865     -10351648       2.601639       1564.7776     -10350083       536.44921      536.44921      536.44921      1731.7754      2268.2246      1731.7754      2268.2246      1731.7754      2268.2246      1.5437815e+08  0.1            9260000        0              0              0              0
Averages over the last 16 of 31 rows, steps 83660000 to 83810000:
Temp Press PotEng Density KinEng TotEng Lx Ly Lz Xlo Xhi Ylo Yhi Zlo Zhi Volume Dt
305.877 1.31932 -1.0429e+07 2.60626 910.85 -1.04281e+07 536.132 536.132 536.132 1731.93 2268.07 1731.93 2268.07 1731.93 2268.07 1.54105e+08 0.1
Loop time of 20.7018 on 4 procs for 300000 steps with 1000 atoms

# run_style
run_style verlet

# write restart
write_restart ./pgnpmf/9010/equpmf69.res
System init for write_restart ...
Generated 0 of 1 mixed pair_coeff terms from geometric mixing rule
