LAMMPS (23 Jun 2022 - Update 1)
# Read restart
read_restart ./pgnpmf/9010/equpmf36.res
Reading restart file ...
  restart file = 23 Jun 2022, LAMMPS = 23 Jun 2022
  restoring atom style atomic from restart
  orthogonal box = (1731.4832 1731.4832 1731.4832) to (2268.5168 2268.5168 2268.5168)
  restoring pair style table from restart
  1000 atoms
  read_restart CPU = 0.003 seconds

# Settings

pair_style table spline 9941

pair_coeff 1 1 ./pgnpmf/N20.txt DE_GNP 75.6
pair_coeff 2 2 ./pgnpmf/N100.txt DE_GNP 115.92
pair_coeff 1 2 ./pgnpmf/mixed_potential.txt DE_GNP 95.66

#Neigh_list Calc Frequency

neigh_modify delay 0 every 1 check yes

# Saving Frequency (50 frames)

variable ts_save equal 5000

# Dump
#dump_modify 1 first no sort id
dump 2 all cfg 50000 ./pgnpmf/9010/equilibration/trajectory/dumpgen.tens_*.cfg mass type xs ys zs fx fy fz
dump_modify 2 element N20 N100

# thermo_style
thermo_style custom step temp press pe density ke etotal lx ly lz xlo xhi ylo yhi zlo zhi vol dt time cpu tpcpu spcpu cpuremain

# run info
timestep 0.1
thermo 10000

# fix

fix 1 all momentum 1000 linear 1 1 1 angular
variable T equal 300
fix 2 all nvt temp 300 370000 100.0

run 200000
Generated 0 of 1 mixed pair_coeff terms from geometric mixing rule
Unused restart file global fix info:
  fix style: npt, fix ID: 5
  update every 1 steps, delay 0 steps, check yes
Step          Temp          Press          PotEng        Density         KinEng         TotEng           Lx             Ly             Lz            Xlo            Xhi            Ylo            Yhi            Zlo            Zhi           Volume           Dt            Time           CPU           T/CPU          S/CPU         CPULeft
44210000   302.66871     -5.9974759     -10404621       2.593156       901.29574     -10403720       537.03353      537.03353      537.03353      1731.4832      2268.5168      1731.4832      2268.5168      1731.4832      2268.5168      1.5488317e+08  0.1            5330000        0              0              0              0
Averages over the last 11 of 21 rows, steps 44310000 to 44410000:
Temp Press PotEng Density KinEng TotEng Lx Ly Lz Xlo Xhi Ylo Yhi Zlo Zhi Volume Dt
276208 3419.45 -9.83317e+06 2.59316 822499 -9.01068e+06 537.034 537.034 537.034 1731.48 2268.52 1731.48 2268.52 1731.48 2268.52 1.54883e+08 0.1
Loop time of 11.7594 on 4 procs for 200000 steps with 1000 atoms

unfix 2

fix 3 all nvt temp 370000 370000 $(100.0*dt) #iso 1.0 1.0 $(1000.0*dt)
fix 3 all nvt temp 370000 370000 10

run 500000
Generated 0 of 1 mixed pair_coeff terms from geometric mixing rule
Step          Temp          Press          PotEng        Density         KinEng         TotEng           Lx             Ly             Lz            Xlo            Xhi            Ylo            Yhi            Zlo            Zhi           Volume           Dt            Time           CPU           T/CPU          S/CPU         CPULeft
44410000   365539.99      4662.534      -9524807.4      2.593156       1088515.7     -8436291.8      537.03353      537.03353      537.03353      1731.4832      2268.5168      1731.4832      2268.5168      1731.4832      2268.5168      1.5488317e+08  0.1            5350000        0              0              0              0
Averages over the last 26 of 51 rows, steps 44660000 to 44910000:
Temp Press PotEng Density KinEng TotEng Lx Ly Lz Xlo Xhi Ylo Yhi Zlo Zhi Volume Dt
373276 4490.49 -9.48815e+06 2.59316 1.11155e+06 -8.3766e+06 537.034 537.034 537.034 1731.48 2268.52 1731.48 2268.52 1731.48 2268.52 1.54883e+08 0.1
Loop time of 29.6224 on 4 procs for 500000 steps with 1000 atoms

unfix 3

fix 4 all nvt temp 370000 300 $(100.0*dt)
fix 4 all nvt temp 370000 300 10

run 200000
Generated 0 of 1 mixed pair_coeff terms from geometric mixing rule
Step          Temp          Press          PotEng        Density         KinEng         TotEng           Lx             Ly             Lz            Xlo            Xhi            Ylo            Yhi            Zlo            Zhi           Volume           Dt            Time           CPU           T/CPU          S/CPU         CPULeft
44910000   371430.8       4330.3199     -9523800.1      2.593156       1106057.5     -8417742.6      537.03353      537.03353      537.03353      1731.4832      2268.5168      1731.4832      2268.5168      1731.4832      2268.5168      1.5488317e+08  0.1            5400000        0              0              0              0
Averages over the last 11 of 21 rows, steps 45010000 to 45110000:
Temp Press PotEng Density KinEng TotEng Lx Ly Lz Xlo Xhi Ylo Yhi Zlo Zhi Volume Dt
92407.8 1442.26 -1.01252e+07 2.59316 275175 -9.85004e+06 537.034 537.034 537.034 1731.48 2268.52 1731.48 2268.52 1731.48 2268.52 1.54883e+08 0.1
Loop time of 11.7857 on 4 procs for 200000 steps with 1000 atoms

unfix 4

fix 5 all npt temp 300 300 $(100.0*dt) iso 1.0 1.0 $(1000.0*dt)
fix 5 all npt temp 300 300 10 iso 1.0 1.0 $(1000.0*dt)
fix 5 all npt temp 300 300 10 iso 1.0 1.0 100

run 300000
Generated 0 of 1 mixed pair_coeff terms from geometric mixing rule
Step          Temp          Press          PotEng        Density         KinEng         TotEng           Lx             Ly             Lz            Xlo            Xhi            Ylo            Yhi            Zlo            Zhi           Volume           Dt            Time           CPU           T/CPU          S/CPU         CPULeft
45110000   524.2209       255.753       -10334048       2.593156       1561.0403     -10332487       537.03353      537.03353      537.03353      1731.4832      2268.5168      1731.4832      2268.5168      1731.4832      2268.5168      1.5488317e+08  0.1            5420000        0              0              0              0
Averages over the last 16 of 31 rows, steps 45260000 to 45410000:
Temp Press PotEng Density KinEng TotEng Lx Ly Lz Xlo Xhi Ylo Yhi Zlo Zhi Volume Dt
301.548 1.18368 -1.04176e+07 2.59822 897.96 -1.04167e+07 536.685 536.685 536.685 1731.66 2268.34 1731.66 2268.34 1731.66 2268.34 1.54582e+08 0.1
Loop time of 20.7036 on 4 procs for 300000 steps with 1000 atoms

# run_style
run_style verlet

# write restart
write_restart ./pgnpmf/9010/equpmf37.res
System init for write_restart ...
Generated 0 of 1 mixed pair_coeff terms from geometric mixing rule
