LAMMPS (23 Jun 2022 - Update 1)
# Read restart
read_restart ./pgnpmf/9010/equpmf47.res
Reading restart file ...
  restart file = 23 Jun 2022, LAMMPS = 23 Jun 2022
  restoring atom style atomic from restart
  orthogonal box = (1731.7682 1731.7682 1731.7682) to (2268.2318 2268.2318 2268.2318)
  restoring pair style table from restart
  1000 atoms
  read_restart CPU = 0.005 seconds

# Settings

pair_style table spline 9941

pair_coeff 1 1 ./pgnpmf/N20.txt DE_GNP 75.6
pair_coeff 2 2 ./pgnpmf/N100.txt DE_GNP 115.92
pair_coeff 1 2 ./pgnpmf/mixed_potential.txt DE_GNP 95.66

#Neigh_list Calc Frequency

neigh_modify delay 0 every 1 check yes

# Saving Frequency (50 frames)

variable ts_save equal 5000

# Dump
#dump_modify 1 first no sort id
dump 2 all cfg 50000 ./pgnpmf/9010/equilibration/trajectory/dumpgen.tens_*.cfg mass type xs ys zs fx fy fz
dump_modify 2 element N20 N100

# thermo_style
thermo_style custom step temp press pe density ke etotal lx ly lz xlo xhi ylo yhi zlo zhi vol dt time cpu tpcpu spcpu cpuremain

# run info
timestep 0.1
thermo 10000

# fix

fix 1 all momentum 1000 linear 1 1 1 angular
variable T equal 300
fix 2 all nvt temp 300 370000 100.0

run 200000
Generated 0 of 1 mixed pair_coeff terms from geometric mixing rule
Unused restart file global fix info:
  fix style: npt, fix ID: 5
  update every 1 steps, delay 0 steps, check yes
Step          Temp          Press          PotEng        Density         KinEng         TotEng           Lx             Ly             Lz            Xlo            Xhi            Ylo            Yhi            Zlo            Zhi           Volume           Dt            Time           CPU           T/CPU          S/CPU         CPULeft
57410000   297.32849      10.010872     -10400037       2.6014292      885.39347     -10399152       536.46363      536.46363      536.46363      1731.7682      2268.2318      1731.7682      2268.2318      1731.7682      2268.2318      1.543906e+08   0.1            6650000        0              0              0              0
Averages over the last 11 of 21 rows, steps 57510000 to 57610000:
Temp Press PotEng Density KinEng TotEng Lx Ly Lz Xlo Xhi Ylo Yhi Zlo Zhi Volume Dt
279354 3649.91 -9.74765e+06 2.60143 831869 -8.91578e+06 536.464 536.464 536.464 1731.77 2268.23 1731.77 2268.23 1731.77 2268.23 1.54391e+08 0.1
Loop time of 12.1846 on 4 procs for 200000 steps with 1000 atoms

unfix 2

fix 3 all nvt temp 370000 370000 $(100.0*dt) #iso 1.0 1.0 $(1000.0*dt)
fix 3 all nvt temp 370000 370000 10

run 500000
Generated 0 of 1 mixed pair_coeff terms from geometric mixing rule
Step          Temp          Press          PotEng        Density         KinEng         TotEng           Lx             Ly             Lz            Xlo            Xhi            Ylo            Yhi            Zlo            Zhi           Volume           Dt            Time           CPU           T/CPU          S/CPU         CPULeft
57610000   383402.14      4962.8973     -9448184        2.6014292      1141706.1     -8306477.9      536.46363      536.46363      536.46363      1731.7682      2268.2318      1731.7682      2268.2318      1731.7682      2268.2318      1.543906e+08   0.1            6670000        0              0              0              0
Averages over the last 26 of 51 rows, steps 57860000 to 58110000:
Temp Press PotEng Density KinEng TotEng Lx Ly Lz Xlo Xhi Ylo Yhi Zlo Zhi Volume Dt
366887 4765.85 -9.39555e+06 2.60143 1.09253e+06 -8.30303e+06 536.464 536.464 536.464 1731.77 2268.23 1731.77 2268.23 1731.77 2268.23 1.54391e+08 0.1
Loop time of 30.5276 on 4 procs for 500000 steps with 1000 atoms

unfix 3

fix 4 all nvt temp 370000 300 $(100.0*dt)
fix 4 all nvt temp 370000 300 10

run 200000
Generated 0 of 1 mixed pair_coeff terms from geometric mixing rule
Step          Temp          Press          PotEng        Density         KinEng         TotEng           Lx             Ly             Lz            Xlo            Xhi            Ylo            Yhi            Zlo            Zhi           Volume           Dt            Time           CPU           T/CPU          S/CPU         CPULeft
58110000   370365.4       4688.5626     -9401064.4      2.6014292      1102884.9     -8298179.4      536.46363      536.46363      536.46363      1731.7682      2268.2318      1731.7682      2268.2318      1731.7682      2268.2318      1.543906e+08   0.1            6720000        0              0              0              0
Averages over the last 11 of 21 rows, steps 58210000 to 58310000:
Temp Press PotEng Density KinEng TotEng Lx Ly Lz Xlo Xhi Ylo Yhi Zlo Zhi Volume Dt
93823.9 1635.92 -1.00471e+07 2.60143 279392 -9.76776e+06 536.464 536.464 536.464 1731.77 2268.23 1731.77 2268.23 1731.77 2268.23 1.54391e+08 0.1
Loop time of 12.1892 on 4 procs for 200000 steps with 1000 atoms

unfix 4

fix 5 all npt temp 300 300 $(100.0*dt) iso 1.0 1.0 $(1000.0*dt)
fix 5 all npt temp 300 300 10 iso 1.0 1.0 $(1000.0*dt)
fix 5 all npt temp 300 300 10 iso 1.0 1.0 100

run 300000
Generated 0 of 1 mixed pair_coeff terms from geometric mixing rule
Step          Temp          Press          PotEng        Density         KinEng         TotEng           Lx             Ly             Lz            Xlo            Xhi            Ylo            Yhi            Zlo            Zhi           Volume           Dt            Time           CPU           T/CPU          S/CPU         CPULeft
58310000   525.07158      481.14416     -10258512       2.6014292      1563.5735     -10256948       536.46363      536.46363      536.46363      1731.7682      2268.2318      1731.7682      2268.2318      1731.7682      2268.2318      1.543906e+08   0.1            6740000        0              0              0              0
Averages over the last 16 of 31 rows, steps 58460000 to 58610000:
Temp Press PotEng Density KinEng TotEng Lx Ly Lz Xlo Xhi Ylo Yhi Zlo Zhi Volume Dt
297.343 1.9785 -1.03357e+07 2.59532 885.438 -1.03348e+07 536.884 536.884 536.884 1731.56 2268.44 1731.56 2268.44 1731.56 2268.44 1.54754e+08 0.1
Loop time of 21.5122 on 4 procs for 300000 steps with 1000 atoms

# run_style
run_style verlet

# write restart
write_restart ./pgnpmf/9010/equpmf48.res
System init for write_restart ...
Generated 0 of 1 mixed pair_coeff terms from geometric mixing rule
