LAMMPS (23 Jun 2022 - Update 1)
# Read restart
read_restart ./pgnpmf/9010/equpmf11.res
Reading restart file ...
  restart file = 23 Jun 2022, LAMMPS = 23 Jun 2022
  restoring atom style atomic from restart
  orthogonal box = (1612.9013 1612.9013 1612.9013) to (2387.0987 2387.0987 2387.0987)
  restoring pair style table from restart
  1000 atoms
  read_restart CPU = 0.006 seconds

# Settings

pair_style table spline 9941

pair_coeff 1 1 ./pgnpmf/N20.txt DE_GNP 75.6
pair_coeff 2 2 ./pgnpmf/N100.txt DE_GNP 115.92
pair_coeff 1 2 ./pgnpmf/mixed_potential.txt DE_GNP 95.66

#Neigh_list Calc Frequency

neigh_modify delay 0 every 1 check yes

# Saving Frequency (50 frames)

variable ts_save equal 5000

# Dump
#dump_modify 1 first no sort id
dump 2 all cfg 50000 ./pgnpmf/9010/equilibration/trajectory/dumpgen.tens_*.cfg mass type xs ys zs fx fy fz
dump_modify 2 element N20 N100

# thermo_style
thermo_style custom step temp press pe density ke etotal lx ly lz xlo xhi ylo yhi zlo zhi vol dt time cpu tpcpu spcpu cpuremain

# run info
timestep 0.1
thermo 10000

# fix

fix 1 all momentum 1000 linear 1 1 1 angular
variable T equal 300
fix 2 all nvt temp 300 370000 100.0

run 200000
Generated 0 of 1 mixed pair_coeff terms from geometric mixing rule
Unused restart file global fix info:
  fix style: npt, fix ID: 5
  update every 1 steps, delay 0 steps, check yes
Step          Temp          Press          PotEng        Density         KinEng         TotEng           Lx             Ly             Lz            Xlo            Xhi            Ylo            Yhi            Zlo            Zhi           Volume           Dt            Time           CPU           T/CPU          S/CPU         CPULeft
14210000   307.76383      2.5075818     -3721426.2      0.86552134     916.46813     -3720509.8      774.19737      774.19737      774.19737      1612.9013      2387.0987      1612.9013      2387.0987      1612.9013      2387.0987      4.6403964e+08  0.1            2330000        0              0              0              0
Averages over the last 11 of 21 rows, steps 14310000 to 14410000:
Temp Press PotEng Density KinEng TotEng Lx Ly Lz Xlo Xhi Ylo Yhi Zlo Zhi Volume Dt
279575 202.789 -3.82259e+06 0.865521 832527 -2.99006e+06 774.197 774.197 774.197 1612.9 2387.1 1612.9 2387.1 1612.9 2387.1 4.6404e+08 0.1
Loop time of 6.30103 on 4 procs for 200000 steps with 1000 atoms

unfix 2

fix 3 all nvt temp 370000 370000 $(100.0*dt) #iso 1.0 1.0 $(1000.0*dt)
fix 3 all nvt temp 370000 370000 10

run 500000
Generated 0 of 1 mixed pair_coeff terms from geometric mixing rule
Step          Temp          Press          PotEng        Density         KinEng         TotEng           Lx             Ly             Lz            Xlo            Xhi            Ylo            Yhi            Zlo            Zhi           Volume           Dt            Time           CPU           T/CPU          S/CPU         CPULeft
14410000   372920.06      251.52839     -3788899.1      0.86552134     1110492.3     -2678406.8      774.19737      774.19737      774.19737      1612.9013      2387.0987      1612.9013      2387.0987      1612.9013      2387.0987      4.6403964e+08  0.1            2350000        0              0              0              0
Averages over the last 26 of 51 rows, steps 14660000 to 14910000:
Temp Press PotEng Density KinEng TotEng Lx Ly Lz Xlo Xhi Ylo Yhi Zlo Zhi Volume Dt
368494 103.37 -3.46078e+06 0.865521 1.09731e+06 -2.36346e+06 774.197 774.197 774.197 1612.9 2387.1 1612.9 2387.1 1612.9 2387.1 4.6404e+08 0.1
Loop time of 16.0643 on 4 procs for 500000 steps with 1000 atoms

unfix 3

fix 4 all nvt temp 370000 300 $(100.0*dt)
fix 4 all nvt temp 370000 300 10

run 200000
Generated 0 of 1 mixed pair_coeff terms from geometric mixing rule
Step          Temp          Press          PotEng        Density         KinEng         TotEng           Lx             Ly             Lz            Xlo            Xhi            Ylo            Yhi            Zlo            Zhi           Volume           Dt            Time           CPU           T/CPU          S/CPU         CPULeft
14910000   358710.08      113.10717     -3493175.8      0.86552134     1068177.4     -2424998.5      774.19737      774.19737      774.19737      1612.9013      2387.0987      1612.9013      2387.0987      1612.9013      2387.0987      4.6403964e+08  0.1            2400000        0              0              0              0
Averages over the last 11 of 21 rows, steps 15010000 to 15110000:
Temp Press PotEng Density KinEng TotEng Lx Ly Lz Xlo Xhi Ylo Yhi Zlo Zhi Volume Dt
92579.5 -119.523 -3.71448e+06 0.865521 275686 -3.43879e+06 774.197 774.197 774.197 1612.9 2387.1 1612.9 2387.1 1612.9 2387.1 4.6404e+08 0.1
Loop time of 6.48231 on 4 procs for 200000 steps with 1000 atoms

unfix 4

fix 5 all npt temp 300 300 $(100.0*dt) iso 1.0 1.0 $(1000.0*dt)
fix 5 all npt temp 300 300 10 iso 1.0 1.0 $(1000.0*dt)
fix 5 all npt temp 300 300 10 iso 1.0 1.0 100

run 300000
Generated 0 of 1 mixed pair_coeff terms from geometric mixing rule
Step          Temp          Press          PotEng        Density         KinEng         TotEng           Lx             Ly             Lz            Xlo            Xhi            Ylo            Yhi            Zlo            Zhi           Volume           Dt            Time           CPU           T/CPU          S/CPU         CPULeft
15110000   508.941       -199.83439     -3816060.4      0.86552134     1515.5394     -3814544.9      774.19737      774.19737      774.19737      1612.9013      2387.0987      1612.9013      2387.0987      1612.9013      2387.0987      4.6403964e+08  0.1            2420000        0              0              0              0
Averages over the last 16 of 31 rows, steps 15260000 to 15410000:
Temp Press PotEng Density KinEng TotEng Lx Ly Lz Xlo Xhi Ylo Yhi Zlo Zhi Volume Dt
309.228 0.702848 -4.22614e+06 0.969148 920.827 -4.22522e+06 745.58 745.58 745.58 1627.21 2372.79 1627.21 2372.79 1627.21 2372.79 4.14479e+08 0.1
Loop time of 12.8109 on 4 procs for 300000 steps with 1000 atoms

# run_style
run_style verlet

# write restart
write_restart ./pgnpmf/9010/equpmf12.res
System init for write_restart ...
Generated 0 of 1 mixed pair_coeff terms from geometric mixing rule
