LAMMPS (23 Jun 2022 - Update 1)
# Read restart
read_restart ./pgnpmf/9010/equpmf44.res
Reading restart file ...
  restart file = 23 Jun 2022, LAMMPS = 23 Jun 2022
  restoring atom style atomic from restart
  orthogonal box = (1731.5502 1731.5502 1731.5502) to (2268.4498 2268.4498 2268.4498)
  restoring pair style table from restart
  1000 atoms
  read_restart CPU = 0.005 seconds

# Settings

pair_style table spline 9941

pair_coeff 1 1 ./pgnpmf/N20.txt DE_GNP 75.6
pair_coeff 2 2 ./pgnpmf/N100.txt DE_GNP 115.92
pair_coeff 1 2 ./pgnpmf/mixed_potential.txt DE_GNP 95.66

#Neigh_list Calc Frequency

neigh_modify delay 0 every 1 check yes

# Saving Frequency (50 frames)

variable ts_save equal 5000

# Dump
#dump_modify 1 first no sort id
dump 2 all cfg 50000 ./pgnpmf/9010/equilibration/trajectory/dumpgen.tens_*.cfg mass type xs ys zs fx fy fz
dump_modify 2 element N20 N100

# thermo_style
thermo_style custom step temp press pe density ke etotal lx ly lz xlo xhi ylo yhi zlo zhi vol dt time cpu tpcpu spcpu cpuremain

# run info
timestep 0.1
thermo 10000

# fix

fix 1 all momentum 1000 linear 1 1 1 angular
variable T equal 300
fix 2 all nvt temp 300 370000 100.0

run 200000
Generated 0 of 1 mixed pair_coeff terms from geometric mixing rule
Unused restart file global fix info:
  fix style: npt, fix ID: 5
  update every 1 steps, delay 0 steps, check yes
Step          Temp          Press          PotEng        Density         KinEng         TotEng           Lx             Ly             Lz            Xlo            Xhi            Ylo            Yhi            Zlo            Zhi           Volume           Dt            Time           CPU           T/CPU          S/CPU         CPULeft
53810000   294.17011     -0.37194186    -10339802       2.5950966      875.98836     -10338926       536.89964      536.89964      536.89964      1731.5502      2268.4498      1731.5502      2268.4498      1731.5502      2268.4498      1.5476735e+08  0.1            6290000        0              0              0              0
Averages over the last 11 of 21 rows, steps 53910000 to 54010000:
Temp Press PotEng Density KinEng TotEng Lx Ly Lz Xlo Xhi Ylo Yhi Zlo Zhi Volume Dt
277320 3451.51 -9.7742e+06 2.5951 825812 -8.94839e+06 536.9 536.9 536.9 1731.55 2268.45 1731.55 2268.45 1731.55 2268.45 1.54767e+08 0.1
Loop time of 11.5247 on 4 procs for 200000 steps with 1000 atoms

unfix 2

fix 3 all nvt temp 370000 370000 $(100.0*dt) #iso 1.0 1.0 $(1000.0*dt)
fix 3 all nvt temp 370000 370000 10

run 500000
Generated 0 of 1 mixed pair_coeff terms from geometric mixing rule
Step          Temp          Press          PotEng        Density         KinEng         TotEng           Lx             Ly             Lz            Xlo            Xhi            Ylo            Yhi            Zlo            Zhi           Volume           Dt            Time           CPU           T/CPU          S/CPU         CPULeft
54010000   370155.4       4640.9325     -9470389.2      2.5950966      1102259.6     -8368129.6      536.89964      536.89964      536.89964      1731.5502      2268.4498      1731.5502      2268.4498      1731.5502      2268.4498      1.5476735e+08  0.1            6310000        0              0              0              0
Averages over the last 26 of 51 rows, steps 54260000 to 54510000:
Temp Press PotEng Density KinEng TotEng Lx Ly Lz Xlo Xhi Ylo Yhi Zlo Zhi Volume Dt
370493 4567.42 -9.46196e+06 2.5951 1.10326e+06 -8.35869e+06 536.9 536.9 536.9 1731.55 2268.45 1731.55 2268.45 1731.55 2268.45 1.54767e+08 0.1
Loop time of 28.9138 on 4 procs for 500000 steps with 1000 atoms

unfix 3

fix 4 all nvt temp 370000 300 $(100.0*dt)
fix 4 all nvt temp 370000 300 10

run 200000
Generated 0 of 1 mixed pair_coeff terms from geometric mixing rule
Step          Temp          Press          PotEng        Density         KinEng         TotEng           Lx             Ly             Lz            Xlo            Xhi            Ylo            Yhi            Zlo            Zhi           Volume           Dt            Time           CPU           T/CPU          S/CPU         CPULeft
54510000   363840.77      4590.0826     -9391950.1      2.5950966      1083455.7     -8308494.5      536.89964      536.89964      536.89964      1731.5502      2268.4498      1731.5502      2268.4498      1731.5502      2268.4498      1.5476735e+08  0.1            6360000        0              0              0              0
Averages over the last 11 of 21 rows, steps 54610000 to 54710000:
Temp Press PotEng Density KinEng TotEng Lx Ly Lz Xlo Xhi Ylo Yhi Zlo Zhi Volume Dt
92483.8 1423.75 -1.00913e+07 2.5951 275401 -9.81592e+06 536.9 536.9 536.9 1731.55 2268.45 1731.55 2268.45 1731.55 2268.45 1.54767e+08 0.1
Loop time of 11.5563 on 4 procs for 200000 steps with 1000 atoms

unfix 4

fix 5 all npt temp 300 300 $(100.0*dt) iso 1.0 1.0 $(1000.0*dt)
fix 5 all npt temp 300 300 10 iso 1.0 1.0 $(1000.0*dt)
fix 5 all npt temp 300 300 10 iso 1.0 1.0 100

run 300000
Generated 0 of 1 mixed pair_coeff terms from geometric mixing rule
Step          Temp          Press          PotEng        Density         KinEng         TotEng           Lx             Ly             Lz            Xlo            Xhi            Ylo            Yhi            Zlo            Zhi           Volume           Dt            Time           CPU           T/CPU          S/CPU         CPULeft
54710000   524.22608      247.99406     -10311946       2.5950966      1561.0558     -10310385       536.89964      536.89964      536.89964      1731.5502      2268.4498      1731.5502      2268.4498      1731.5502      2268.4498      1.5476735e+08  0.1            6380000        0              0              0              0
Averages over the last 16 of 31 rows, steps 54860000 to 55010000:
Temp Press PotEng Density KinEng TotEng Lx Ly Lz Xlo Xhi Ylo Yhi Zlo Zhi Volume Dt
301.243 1.8158 -1.03759e+07 2.59973 897.051 -1.0375e+07 536.581 536.581 536.581 1731.71 2268.29 1731.71 2268.29 1731.71 2268.29 1.54492e+08 0.1
Loop time of 20.3341 on 4 procs for 300000 steps with 1000 atoms

# run_style
run_style verlet

# write restart
write_restart ./pgnpmf/9010/equpmf45.res
System init for write_restart ...
Generated 0 of 1 mixed pair_coeff terms from geometric mixing rule
