LAMMPS (23 Jun 2022 - Update 1)
# Read restart
read_restart ./pgnpmf/9010/equpmf34.res
Reading restart file ...
  restart file = 23 Jun 2022, LAMMPS = 23 Jun 2022
  restoring atom style atomic from restart
  orthogonal box = (1731.5536 1731.5536 1731.5536) to (2268.4464 2268.4464 2268.4464)
  restoring pair style table from restart
  1000 atoms
  read_restart CPU = 0.005 seconds

# Settings

pair_style table spline 9941

pair_coeff 1 1 ./pgnpmf/N20.txt DE_GNP 75.6
pair_coeff 2 2 ./pgnpmf/N100.txt DE_GNP 115.92
pair_coeff 1 2 ./pgnpmf/mixed_potential.txt DE_GNP 95.66

#Neigh_list Calc Frequency

neigh_modify delay 0 every 1 check yes

# Saving Frequency (50 frames)

variable ts_save equal 5000

# Dump
#dump_modify 1 first no sort id
dump 2 all cfg 50000 ./pgnpmf/9010/equilibration/trajectory/dumpgen.tens_*.cfg mass type xs ys zs fx fy fz
dump_modify 2 element N20 N100

# thermo_style
thermo_style custom step temp press pe density ke etotal lx ly lz xlo xhi ylo yhi zlo zhi vol dt time cpu tpcpu spcpu cpuremain

# run info
timestep 0.1
thermo 10000

# fix

fix 1 all momentum 1000 linear 1 1 1 angular
variable T equal 300
fix 2 all nvt temp 300 370000 100.0

run 200000
Generated 0 of 1 mixed pair_coeff terms from geometric mixing rule
Unused restart file global fix info:
  fix style: npt, fix ID: 5
  update every 1 steps, delay 0 steps, check yes
Step          Temp          Press          PotEng        Density         KinEng         TotEng           Lx             Ly             Lz            Xlo            Xhi            Ylo            Yhi            Zlo            Zhi           Volume           Dt            Time           CPU           T/CPU          S/CPU         CPULeft
41810000   290.81886     -3.8113735     -10426239       2.5951965      866.00889     -10425373       536.89275      536.89275      536.89275      1731.5536      2268.4464      1731.5536      2268.4464      1731.5536      2268.4464      1.5476139e+08  0.1            5090000        0              0              0              0
Averages over the last 11 of 21 rows, steps 41910000 to 42010000:
Temp Press PotEng Density KinEng TotEng Lx Ly Lz Xlo Xhi Ylo Yhi Zlo Zhi Volume Dt
276270 3402.89 -9.78009e+06 2.5952 822685 -8.9574e+06 536.893 536.893 536.893 1731.55 2268.45 1731.55 2268.45 1731.55 2268.45 1.54761e+08 0.1
Loop time of 12.0975 on 4 procs for 200000 steps with 1000 atoms

unfix 2

fix 3 all nvt temp 370000 370000 $(100.0*dt) #iso 1.0 1.0 $(1000.0*dt)
fix 3 all nvt temp 370000 370000 10

run 500000
Generated 0 of 1 mixed pair_coeff terms from geometric mixing rule
Step          Temp          Press          PotEng        Density         KinEng         TotEng           Lx             Ly             Lz            Xlo            Xhi            Ylo            Yhi            Zlo            Zhi           Volume           Dt            Time           CPU           T/CPU          S/CPU         CPULeft
42010000   360292.3       4620.8813     -9540526.6      2.5951965      1072888.9     -8467637.6      536.89275      536.89275      536.89275      1731.5536      2268.4464      1731.5536      2268.4464      1731.5536      2268.4464      1.5476139e+08  0.1            5110000        0              0              0              0
Averages over the last 26 of 51 rows, steps 42260000 to 42510000:
Temp Press PotEng Density KinEng TotEng Lx Ly Lz Xlo Xhi Ylo Yhi Zlo Zhi Volume Dt
368190 4773.99 -9.42897e+06 2.5952 1.09641e+06 -8.33257e+06 536.893 536.893 536.893 1731.55 2268.45 1731.55 2268.45 1731.55 2268.45 1.54761e+08 0.1
Loop time of 30.0048 on 4 procs for 500000 steps with 1000 atoms

unfix 3

fix 4 all nvt temp 370000 300 $(100.0*dt)
fix 4 all nvt temp 370000 300 10

run 200000
Generated 0 of 1 mixed pair_coeff terms from geometric mixing rule
Step          Temp          Press          PotEng        Density         KinEng         TotEng           Lx             Ly             Lz            Xlo            Xhi            Ylo            Yhi            Zlo            Zhi           Volume           Dt            Time           CPU           T/CPU          S/CPU         CPULeft
42510000   357808.87      4599.1538     -9448570.2      2.5951965      1065493.7     -8383076.5      536.89275      536.89275      536.89275      1731.5536      2268.4464      1731.5536      2268.4464      1731.5536      2268.4464      1.5476139e+08  0.1            5160000        0              0              0              0
Averages over the last 11 of 21 rows, steps 42610000 to 42710000:
Temp Press PotEng Density KinEng TotEng Lx Ly Lz Xlo Xhi Ylo Yhi Zlo Zhi Volume Dt
93422.3 1647.53 -1.00752e+07 2.5952 278196 -9.79701e+06 536.893 536.893 536.893 1731.55 2268.45 1731.55 2268.45 1731.55 2268.45 1.54761e+08 0.1
Loop time of 11.9904 on 4 procs for 200000 steps with 1000 atoms

unfix 4

fix 5 all npt temp 300 300 $(100.0*dt) iso 1.0 1.0 $(1000.0*dt)
fix 5 all npt temp 300 300 10 iso 1.0 1.0 $(1000.0*dt)
fix 5 all npt temp 300 300 10 iso 1.0 1.0 100

run 300000
Generated 0 of 1 mixed pair_coeff terms from geometric mixing rule
Step          Temp          Press          PotEng        Density         KinEng         TotEng           Lx             Ly             Lz            Xlo            Xhi            Ylo            Yhi            Zlo            Zhi           Volume           Dt            Time           CPU           T/CPU          S/CPU         CPULeft
42710000   525.47386      533.6945      -10298734       2.5951965      1564.7714     -10297169       536.89275      536.89275      536.89275      1731.5536      2268.4464      1731.5536      2268.4464      1731.5536      2268.4464      1.5476139e+08  0.1            5180000        0              0              0              0
Averages over the last 16 of 31 rows, steps 42860000 to 43010000:
Temp Press PotEng Density KinEng TotEng Lx Ly Lz Xlo Xhi Ylo Yhi Zlo Zhi Volume Dt
303.376 -1.07726 -1.03451e+07 2.5878 903.401 -1.03442e+07 537.404 537.404 537.404 1731.3 2268.7 1731.3 2268.7 1731.3 2268.7 1.55204e+08 0.1
Loop time of 21.2331 on 4 procs for 300000 steps with 1000 atoms

# run_style
run_style verlet

# write restart
write_restart ./pgnpmf/9010/equpmf35.res
System init for write_restart ...
Generated 0 of 1 mixed pair_coeff terms from geometric mixing rule
