LAMMPS (23 Jun 2022 - Update 1)
# Read restart
read_restart ./pgnpmf/9010/equpmf65.res
Reading restart file ...
  restart file = 23 Jun 2022, LAMMPS = 23 Jun 2022
  restoring atom style atomic from restart
  orthogonal box = (1731.8238 1731.8238 1731.8238) to (2268.1762 2268.1762 2268.1762)
  restoring pair style table from restart
  1000 atoms
  read_restart CPU = 0.007 seconds

# Settings

pair_style table spline 9941

pair_coeff 1 1 ./pgnpmf/N20.txt DE_GNP 75.6
pair_coeff 2 2 ./pgnpmf/N100.txt DE_GNP 115.92
pair_coeff 1 2 ./pgnpmf/mixed_potential.txt DE_GNP 95.66

#Neigh_list Calc Frequency

neigh_modify delay 0 every 1 check yes

# Saving Frequency (50 frames)

variable ts_save equal 5000

# Dump
#dump_modify 1 first no sort id
dump 2 all cfg 50000 ./pgnpmf/9010/equilibration/trajectory/dumpgen.tens_*.cfg mass type xs ys zs fx fy fz
dump_modify 2 element N20 N100

# thermo_style
thermo_style custom step temp press pe density ke etotal lx ly lz xlo xhi ylo yhi zlo zhi vol dt time cpu tpcpu spcpu cpuremain

# run info
timestep 0.1
thermo 10000

# fix

fix 1 all momentum 1000 linear 1 1 1 angular
variable T equal 300
fix 2 all nvt temp 300 370000 100.0

run 200000
Generated 0 of 1 mixed pair_coeff terms from geometric mixing rule
Unused restart file global fix info:
  fix style: npt, fix ID: 5
  update every 1 steps, delay 0 steps, check yes
Step          Temp          Press          PotEng        Density         KinEng         TotEng           Lx             Ly             Lz            Xlo            Xhi            Ylo            Yhi            Zlo            Zhi           Volume           Dt            Time           CPU           T/CPU          S/CPU         CPULeft
79010000   298.74195      6.8939781     -10390365       2.603047       889.60252     -10389476       536.35247      536.35247      536.35247      1731.8238      2268.1762      1731.8238      2268.1762      1731.8238      2268.1762      1.5429465e+08  0.1            8810000        0              0              0              0
Averages over the last 11 of 21 rows, steps 79110000 to 79210000:
Temp Press PotEng Density KinEng TotEng Lx Ly Lz Xlo Xhi Ylo Yhi Zlo Zhi Volume Dt
274184 3374.58 -9.83827e+06 2.60305 816474 -9.0218e+06 536.352 536.352 536.352 1731.82 2268.18 1731.82 2268.18 1731.82 2268.18 1.54295e+08 0.1
Loop time of 11.7538 on 4 procs for 200000 steps with 1000 atoms

unfix 2

fix 3 all nvt temp 370000 370000 $(100.0*dt) #iso 1.0 1.0 $(1000.0*dt)
fix 3 all nvt temp 370000 370000 10

run 500000
Generated 0 of 1 mixed pair_coeff terms from geometric mixing rule
Step          Temp          Press          PotEng        Density         KinEng         TotEng           Lx             Ly             Lz            Xlo            Xhi            Ylo            Yhi            Zlo            Zhi           Volume           Dt            Time           CPU           T/CPU          S/CPU         CPULeft
79210000   351433.01      4511.6891     -9597478.8      2.603047       1046507.5     -8550971.4      536.35247      536.35247      536.35247      1731.8238      2268.1762      1731.8238      2268.1762      1731.8238      2268.1762      1.5429465e+08  0.1            8830000        0              0              0              0
Averages over the last 26 of 51 rows, steps 79460000 to 79710000:
Temp Press PotEng Density KinEng TotEng Lx Ly Lz Xlo Xhi Ylo Yhi Zlo Zhi Volume Dt
368232 4632.26 -9.43986e+06 2.60305 1.09653e+06 -8.34333e+06 536.352 536.352 536.352 1731.82 2268.18 1731.82 2268.18 1731.82 2268.18 1.54295e+08 0.1
Loop time of 29.5271 on 4 procs for 500000 steps with 1000 atoms

unfix 3

fix 4 all nvt temp 370000 300 $(100.0*dt)
fix 4 all nvt temp 370000 300 10

run 200000
Generated 0 of 1 mixed pair_coeff terms from geometric mixing rule
Step          Temp          Press          PotEng        Density         KinEng         TotEng           Lx             Ly             Lz            Xlo            Xhi            Ylo            Yhi            Zlo            Zhi           Volume           Dt            Time           CPU           T/CPU          S/CPU         CPULeft
79710000   364510.59      4621.8651     -9490914.1      2.603047       1085450.3     -8405463.8      536.35247      536.35247      536.35247      1731.8238      2268.1762      1731.8238      2268.1762      1731.8238      2268.1762      1.5429465e+08  0.1            8880000        0              0              0              0
Averages over the last 11 of 21 rows, steps 79810000 to 79910000:
Temp Press PotEng Density KinEng TotEng Lx Ly Lz Xlo Xhi Ylo Yhi Zlo Zhi Volume Dt
92583.8 1609.05 -1.01265e+07 2.60305 275699 -9.85076e+06 536.352 536.352 536.352 1731.82 2268.18 1731.82 2268.18 1731.82 2268.18 1.54295e+08 0.1
Loop time of 11.8423 on 4 procs for 200000 steps with 1000 atoms

unfix 4

fix 5 all npt temp 300 300 $(100.0*dt) iso 1.0 1.0 $(1000.0*dt)
fix 5 all npt temp 300 300 10 iso 1.0 1.0 $(1000.0*dt)
fix 5 all npt temp 300 300 10 iso 1.0 1.0 100

run 300000
Generated 0 of 1 mixed pair_coeff terms from geometric mixing rule
Step          Temp          Press          PotEng        Density         KinEng         TotEng           Lx             Ly             Lz            Xlo            Xhi            Ylo            Yhi            Zlo            Zhi           Volume           Dt            Time           CPU           T/CPU          S/CPU         CPULeft
79910000   525.40021      476.50576     -10337501       2.603047       1564.5521     -10335936       536.35247      536.35247      536.35247      1731.8238      2268.1762      1731.8238      2268.1762      1731.8238      2268.1762      1.5429465e+08  0.1            8900000        0              0              0              0
Averages over the last 16 of 31 rows, steps 80060000 to 80210000:
Temp Press PotEng Density KinEng TotEng Lx Ly Lz Xlo Xhi Ylo Yhi Zlo Zhi Volume Dt
300.4 2.70849 -1.04304e+07 2.59839 894.541 -1.04295e+07 536.673 536.673 536.673 1731.66 2268.34 1731.66 2268.34 1731.66 2268.34 1.54571e+08 0.1
Loop time of 20.8681 on 4 procs for 300000 steps with 1000 atoms

# run_style
run_style verlet

# write restart
write_restart ./pgnpmf/9010/equpmf66.res
System init for write_restart ...
Generated 0 of 1 mixed pair_coeff terms from geometric mixing rule
