LAMMPS (23 Jun 2022 - Update 1)
# Read restart
read_restart ./pgnpmf/100/equpmf2.res
Reading restart file ...
  restart file = 23 Jun 2022, LAMMPS = 23 Jun 2022
  restoring atom style atomic from restart
  orthogonal box = (577.03155 577.03155 577.03155) to (3422.9685 3422.9685 3422.9685)
  restoring pair style table from restart
  1000 atoms
  read_restart CPU = 0.002 seconds

# Settings

pair_style table spline 9941

pair_coeff 1 1 ./pgnpmf/N20.txt DE_GNP 75.6
pair_coeff 2 2 ./pgnpmf/N100.txt DE_GNP 115.92
pair_coeff 1 2 ./pgnpmf/mixed_potential.txt DE_GNP 95.66

#Neigh_list Calc Frequency

neigh_modify delay 0 every 1 check yes

# Saving Frequency (50 frames)

variable ts_save equal 5000

variable nts equal 5000/0.5
variable medium equal 10000*3
variable long equal 10000*5

# Dump
#dump_modify 1 first no sort id
dump 2 all cfg 50000 ./pgnpmf/100/equilibration/trajectory/dumpequ.tens_*.cfg mass type xs ys zs fx fy fz
dump_modify 2 element N20 N100

# thermo_style
thermo_style custom step temp press pe density ke etotal lx ly lz xlo xhi ylo yhi zlo zhi vol dt time cpu tpcpu spcpu cpuremain

# run info
timestep 0.5
thermo 5000

# fix

fix 1 all momentum 1000 linear 1 1 1 angular
variable T equal 300
fix 2 all nvt temp 300 370000 100.0

run 10000
Generated 0 of 1 mixed pair_coeff terms from geometric mixing rule
Unused restart file global fix info:
  fix style: npt, fix ID: 5
  update every 1 steps, delay 0 steps, check yes
Step          Temp          Press          PotEng        Density         KinEng         TotEng           Lx             Ly             Lz            Xlo            Xhi            Ylo            Yhi            Zlo            Zhi           Volume           Dt            Time           CPU           T/CPU          S/CPU         CPULeft
260000   346.26928      0.99311911    -223690         0.01598213     1031.1308     -222658.87      2845.9369      2845.9369      2845.9369      577.03155      3422.9685      577.03155      3422.9685      577.03155      3422.9685      2.3050259e+10  0.5            160000         0              0              0              0
Loop time of 0.469226 on 4 procs for 10000 steps with 1000 atoms

unfix 2

fix 3 all nvt temp 370000 370000 $(100.0*dt) #iso 1.0 1.0 $(1000.0*dt)
fix 3 all nvt temp 370000 370000 50

run 50000
Generated 0 of 1 mixed pair_coeff terms from geometric mixing rule
Step          Temp          Press          PotEng        Density         KinEng         TotEng           Lx             Ly             Lz            Xlo            Xhi            Ylo            Yhi            Zlo            Zhi           Volume           Dt            Time           CPU           T/CPU          S/CPU         CPULeft
270000   372651.4       2.9490831     -190000.12      0.01598213     1109692.2      919692.11      2845.9369      2845.9369      2845.9369      577.03155      3422.9685      577.03155      3422.9685      577.03155      3422.9685      2.3050259e+10  0.5            165000         0              0              0              0
Averages over the last 6 of 11 rows, steps 295000 to 320000:
Temp Press PotEng Density KinEng TotEng Lx Ly Lz Xlo Xhi Ylo Yhi Zlo Zhi Volume Dt
363384 2.43929 -197694 0.0159821 1.08209e+06 884401 2845.94 2845.94 2845.94 577.032 3422.97 577.032 3422.97 577.032 3422.97 2.30503e+10 0.5
Loop time of 2.32258 on 4 procs for 50000 steps with 1000 atoms

unfix 3

fix 4 all nvt temp 370000 300 100.0

run 10000
Generated 0 of 1 mixed pair_coeff terms from geometric mixing rule
Step          Temp          Press          PotEng        Density         KinEng         TotEng           Lx             Ly             Lz            Xlo            Xhi            Ylo            Yhi            Zlo            Zhi           Volume           Dt            Time           CPU           T/CPU          S/CPU         CPULeft
320000   357430.7       2.2047593     -190753.36      0.01598213     1064367.6      873614.23      2845.9369      2845.9369      2845.9369      577.03155      3422.9685      577.03155      3422.9685      577.03155      3422.9685      2.3050259e+10  0.5            190000         0              0              0              0
Loop time of 0.455428 on 4 procs for 10000 steps with 1000 atoms

unfix 4

fix 5 all npt temp 300 300 $(100.0*dt) iso 1.0 1.0 $(1000.0*dt)
fix 5 all npt temp 300 300 50 iso 1.0 1.0 $(1000.0*dt)
fix 5 all npt temp 300 300 50 iso 1.0 1.0 500

run 30000
Generated 0 of 1 mixed pair_coeff terms from geometric mixing rule
Step          Temp          Press          PotEng        Density         KinEng         TotEng           Lx             Ly             Lz            Xlo            Xhi            Ylo            Yhi            Zlo            Zhi           Volume           Dt            Time           CPU           T/CPU          S/CPU         CPULeft
330000   7944.4793     -0.10522361    -194973.96      0.01598213     23657.303     -171316.66      2845.9369      2845.9369      2845.9369      577.03155      3422.9685      577.03155      3422.9685      577.03155      3422.9685      2.3050259e+10  0.5            195000         0              0              0              0
Loop time of 2.39806 on 4 procs for 30000 steps with 1000 atoms

# run_style
run_style verlet

# write restart
write_restart ./pgnpmf/100/equpmf3.res
System init for write_restart ...
Generated 0 of 1 mixed pair_coeff terms from geometric mixing rule
