LAMMPS (23 Jun 2022 - Update 1)
# Read restart
read_restart ./pgnpmf/100/equpmf40.res
Reading restart file ...
  restart file = 23 Jun 2022, LAMMPS = 23 Jun 2022
  restoring atom style atomic from restart
  orthogonal box = (1741.7172 1741.7172 1741.7172) to (2258.2828 2258.2828 2258.2828)
  restoring pair style table from restart
  1000 atoms
  read_restart CPU = 0.004 seconds

# Settings

pair_style table spline 9941

pair_coeff 1 1 ./pgnpmf/N20.txt DE_GNP 75.6
pair_coeff 2 2 ./pgnpmf/N100.txt DE_GNP 115.92
pair_coeff 1 2 ./pgnpmf/mixed_potential.txt DE_GNP 95.66

#Neigh_list Calc Frequency

neigh_modify delay 0 every 1 check yes

# Saving Frequency (50 frames)

variable ts_save equal 5000

variable nts equal 5000/0.5
variable medium equal 10000*3
variable long equal 10000*5

# Dump
#dump_modify 1 first no sort id
dump 2 all cfg 50000 ./pgnpmf/100/equilibration/trajectory/dumpequ.tens_*.cfg mass type xs ys zs fx fy fz
dump_modify 2 element N20 N100

# thermo_style
thermo_style custom step temp press pe density ke etotal lx ly lz xlo xhi ylo yhi zlo zhi vol dt time cpu tpcpu spcpu cpuremain

# run info
timestep 0.5
thermo 5000

# fix

fix 1 all momentum 1000 linear 1 1 1 angular
variable T equal 300
fix 2 all nvt temp 300 370000 100.0

run 10000
Generated 0 of 1 mixed pair_coeff terms from geometric mixing rule
Unused restart file global fix info:
  fix style: npt, fix ID: 5
  update every 1 steps, delay 0 steps, check yes
Step          Temp          Press          PotEng        Density         KinEng         TotEng           Lx             Ly             Lz            Xlo            Xhi            Ylo            Yhi            Zlo            Zhi           Volume           Dt            Time           CPU           T/CPU          S/CPU         CPULeft
4060000   329.29386      9.5500051     -4828380.8      2.6725988      980.5809      -4827400.2      516.5657       516.5657       516.5657       1741.7172      2258.2828      1741.7172      2258.2828      1741.7172      2258.2828      1.3784045e+08  0.5            2060000        0              0              0              0
Loop time of 0.78256 on 4 procs for 10000 steps with 1000 atoms

unfix 2

fix 3 all nvt temp 370000 370000 $(100.0*dt) #iso 1.0 1.0 $(1000.0*dt)
fix 3 all nvt temp 370000 370000 50

run 50000
Generated 0 of 1 mixed pair_coeff terms from geometric mixing rule
Step          Temp          Press          PotEng        Density         KinEng         TotEng           Lx             Ly             Lz            Xlo            Xhi            Ylo            Yhi            Zlo            Zhi           Volume           Dt            Time           CPU           T/CPU          S/CPU         CPULeft
4070000   372826.57      1940.54       -4470687.6      2.6725988      1110213.9     -3360473.8      516.5657       516.5657       516.5657       1741.7172      2258.2828      1741.7172      2258.2828      1741.7172      2258.2828      1.3784045e+08  0.5            2065000        0              0              0              0
Averages over the last 6 of 11 rows, steps 4095000 to 4120000:
Temp Press PotEng Density KinEng TotEng Lx Ly Lz Xlo Xhi Ylo Yhi Zlo Zhi Volume Dt
372125 3094.49 -4.27298e+06 2.6726 1.10813e+06 -3.16486e+06 516.566 516.566 516.566 1741.72 2258.28 1741.72 2258.28 1741.72 2258.28 1.3784e+08 0.5
Loop time of 3.96264 on 4 procs for 50000 steps with 1000 atoms

unfix 3

fix 4 all nvt temp 370000 300 100.0

run 10000
Generated 0 of 1 mixed pair_coeff terms from geometric mixing rule
Step          Temp          Press          PotEng        Density         KinEng         TotEng           Lx             Ly             Lz            Xlo            Xhi            Ylo            Yhi            Zlo            Zhi           Volume           Dt            Time           CPU           T/CPU          S/CPU         CPULeft
4120000   362132.09      3102.1648     -4270664.6      2.6725988      1078367.5     -3192297        516.5657       516.5657       516.5657       1741.7172      2258.2828      1741.7172      2258.2828      1741.7172      2258.2828      1.3784045e+08  0.5            2090000        0              0              0              0
Loop time of 0.784823 on 4 procs for 10000 steps with 1000 atoms

unfix 4

fix 5 all npt temp 300 300 $(100.0*dt) iso 1.0 1.0 $(1000.0*dt)
fix 5 all npt temp 300 300 50 iso 1.0 1.0 $(1000.0*dt)
fix 5 all npt temp 300 300 50 iso 1.0 1.0 500

run 30000
Generated 0 of 1 mixed pair_coeff terms from geometric mixing rule
Step          Temp          Press          PotEng        Density         KinEng         TotEng           Lx             Ly             Lz            Xlo            Xhi            Ylo            Yhi            Zlo            Zhi           Volume           Dt            Time           CPU           T/CPU          S/CPU         CPULeft
4130000   9421.5155      337.97931     -4743808.9      2.6725988      28055.664     -4715753.2      516.5657       516.5657       516.5657       1741.7172      2258.2828      1741.7172      2258.2828      1741.7172      2258.2828      1.3784045e+08  0.5            2095000        0              0              0              0
Loop time of 2.78316 on 4 procs for 30000 steps with 1000 atoms

# run_style
run_style verlet

# write restart
write_restart ./pgnpmf/100/equpmf41.res
System init for write_restart ...
Generated 0 of 1 mixed pair_coeff terms from geometric mixing rule
