LAMMPS (23 Jun 2022 - Update 1)
# Read restart
read_restart ./pgnpmf/100/equpmf37.res
Reading restart file ...
  restart file = 23 Jun 2022, LAMMPS = 23 Jun 2022
  restoring atom style atomic from restart
  orthogonal box = (1734.817 1734.817 1734.817) to (2265.183 2265.183 2265.183)
  restoring pair style table from restart
  1000 atoms
  read_restart CPU = 0.003 seconds

# Settings

pair_style table spline 9941

pair_coeff 1 1 ./pgnpmf/N20.txt DE_GNP 75.6
pair_coeff 2 2 ./pgnpmf/N100.txt DE_GNP 115.92
pair_coeff 1 2 ./pgnpmf/mixed_potential.txt DE_GNP 95.66

#Neigh_list Calc Frequency

neigh_modify delay 0 every 1 check yes

# Saving Frequency (50 frames)

variable ts_save equal 5000

variable nts equal 5000/0.5
variable medium equal 10000*3
variable long equal 10000*5

# Dump
#dump_modify 1 first no sort id
dump 2 all cfg 50000 ./pgnpmf/100/equilibration/trajectory/dumpequ.tens_*.cfg mass type xs ys zs fx fy fz
dump_modify 2 element N20 N100

# thermo_style
thermo_style custom step temp press pe density ke etotal lx ly lz xlo xhi ylo yhi zlo zhi vol dt time cpu tpcpu spcpu cpuremain

# run info
timestep 0.5
thermo 5000

# fix

fix 1 all momentum 1000 linear 1 1 1 angular
variable T equal 300
fix 2 all nvt temp 300 370000 100.0

run 10000
Generated 0 of 1 mixed pair_coeff terms from geometric mixing rule
Unused restart file global fix info:
  fix style: npt, fix ID: 5
  update every 1 steps, delay 0 steps, check yes
Step          Temp          Press          PotEng        Density         KinEng         TotEng           Lx             Ly             Lz            Xlo            Xhi            Ylo            Yhi            Zlo            Zhi           Volume           Dt            Time           CPU           T/CPU          S/CPU         CPULeft
3760000   337.66816      6.5085117     -4378984.7      2.4693531      1005.5181     -4377979.1      530.36609      530.36609      530.36609      1734.817       2265.183       1734.817       2265.183       1734.817       2265.183       1.4918572e+08  0.5            1910000        0              0              0              0
Loop time of 0.750076 on 4 procs for 10000 steps with 1000 atoms

unfix 2

fix 3 all nvt temp 370000 370000 $(100.0*dt) #iso 1.0 1.0 $(1000.0*dt)
fix 3 all nvt temp 370000 370000 50

run 50000
Generated 0 of 1 mixed pair_coeff terms from geometric mixing rule
Step          Temp          Press          PotEng        Density         KinEng         TotEng           Lx             Ly             Lz            Xlo            Xhi            Ylo            Yhi            Zlo            Zhi           Volume           Dt            Time           CPU           T/CPU          S/CPU         CPULeft
3770000   371255.77      1222.8499     -4113687.4      2.4693531      1105536.3     -3008151.1      530.36609      530.36609      530.36609      1734.817       2265.183       1734.817       2265.183       1734.817       2265.183       1.4918572e+08  0.5            1915000        0              0              0              0
Averages over the last 6 of 11 rows, steps 3795000 to 3820000:
Temp Press PotEng Density KinEng TotEng Lx Ly Lz Xlo Xhi Ylo Yhi Zlo Zhi Volume Dt
369285 1921.01 -4.01172e+06 2.46935 1.09967e+06 -2.91205e+06 530.366 530.366 530.366 1734.82 2265.18 1734.82 2265.18 1734.82 2265.18 1.49186e+08 0.5
Loop time of 3.79432 on 4 procs for 50000 steps with 1000 atoms

unfix 3

fix 4 all nvt temp 370000 300 100.0

run 10000
Generated 0 of 1 mixed pair_coeff terms from geometric mixing rule
Step          Temp          Press          PotEng        Density         KinEng         TotEng           Lx             Ly             Lz            Xlo            Xhi            Ylo            Yhi            Zlo            Zhi           Volume           Dt            Time           CPU           T/CPU          S/CPU         CPULeft
3820000   365856.44      2107.3867     -3962047        2.4693531      1089458       -2872589        530.36609      530.36609      530.36609      1734.817       2265.183       1734.817       2265.183       1734.817       2265.183       1.4918572e+08  0.5            1940000        0              0              0              0
Loop time of 0.748593 on 4 procs for 10000 steps with 1000 atoms

unfix 4

fix 5 all npt temp 300 300 $(100.0*dt) iso 1.0 1.0 $(1000.0*dt)
fix 5 all npt temp 300 300 50 iso 1.0 1.0 $(1000.0*dt)
fix 5 all npt temp 300 300 50 iso 1.0 1.0 500

run 30000
Generated 0 of 1 mixed pair_coeff terms from geometric mixing rule
Step          Temp          Press          PotEng        Density         KinEng         TotEng           Lx             Ly             Lz            Xlo            Xhi            Ylo            Yhi            Zlo            Zhi           Volume           Dt            Time           CPU           T/CPU          S/CPU         CPULeft
3830000   9167.2005     -90.9958       -4349177.7      2.4693531      27298.358     -4321879.3      530.36609      530.36609      530.36609      1734.817       2265.183       1734.817       2265.183       1734.817       2265.183       1.4918572e+08  0.5            1945000        0              0              0              0
Loop time of 2.68774 on 4 procs for 30000 steps with 1000 atoms

# run_style
run_style verlet

# write restart
write_restart ./pgnpmf/100/equpmf38.res
System init for write_restart ...
Generated 0 of 1 mixed pair_coeff terms from geometric mixing rule
