LAMMPS (23 Jun 2022 - Update 1)
# Read restart
read_restart ./pgnpmf/100/equpmf67.res
Reading restart file ...
  restart file = 23 Jun 2022, LAMMPS = 23 Jun 2022
  restoring atom style atomic from restart
  orthogonal box = (1745.6009 1745.6009 1745.6009) to (2254.3991 2254.3991 2254.3991)
  restoring pair style table from restart
  1000 atoms
  read_restart CPU = 0.018 seconds

# Settings

pair_style table spline 9941

pair_coeff 1 1 ./pgnpmf/N20.txt DE_GNP 75.6
pair_coeff 2 2 ./pgnpmf/N100.txt DE_GNP 115.92
pair_coeff 1 2 ./pgnpmf/mixed_potential.txt DE_GNP 95.66

#Neigh_list Calc Frequency

neigh_modify delay 0 every 1 check yes

# Saving Frequency (50 frames)

variable ts_save equal 5000

variable nts equal 5000/0.5
variable medium equal 10000*3
variable long equal 10000*5

# Dump
#dump_modify 1 first no sort id
dump 2 all cfg 50000 ./pgnpmf/100/equilibration/trajectory/dumpequ.tens_*.cfg mass type xs ys zs fx fy fz
dump_modify 2 element N20 N100

# thermo_style
thermo_style custom step temp press pe density ke etotal lx ly lz xlo xhi ylo yhi zlo zhi vol dt time cpu tpcpu spcpu cpuremain

# run info
timestep 0.5
thermo 5000

# fix

fix 1 all momentum 1000 linear 1 1 1 angular
variable T equal 300
fix 2 all nvt temp 300 370000 100.0

run 10000
Generated 0 of 1 mixed pair_coeff terms from geometric mixing rule
Unused restart file global fix info:
  fix style: npt, fix ID: 5
  update every 1 steps, delay 0 steps, check yes
Step          Temp          Press          PotEng        Density         KinEng         TotEng           Lx             Ly             Lz            Xlo            Xhi            Ylo            Yhi            Zlo            Zhi           Volume           Dt            Time           CPU           T/CPU          S/CPU         CPULeft
6760000   324.36157      1.7619675     -5097053.5      2.796879       965.89337     -5096087.6      508.79823      508.79823      508.79823      1745.6009      2254.3991      1745.6009      2254.3991      1745.6009      2254.3991      1.3171547e+08  0.5            3410000        0              0              0              0
Loop time of 0.795873 on 4 procs for 10000 steps with 1000 atoms

unfix 2

fix 3 all nvt temp 370000 370000 $(100.0*dt) #iso 1.0 1.0 $(1000.0*dt)
fix 3 all nvt temp 370000 370000 50

run 50000
Generated 0 of 1 mixed pair_coeff terms from geometric mixing rule
Step          Temp          Press          PotEng        Density         KinEng         TotEng           Lx             Ly             Lz            Xlo            Xhi            Ylo            Yhi            Zlo            Zhi           Volume           Dt            Time           CPU           T/CPU          S/CPU         CPULeft
6770000   373528.83      2305.883      -4710679.5      2.796879       1112305.1     -3598374.5      508.79823      508.79823      508.79823      1745.6009      2254.3991      1745.6009      2254.3991      1745.6009      2254.3991      1.3171547e+08  0.5            3415000        0              0              0              0
Averages over the last 6 of 11 rows, steps 6795000 to 6820000:
Temp Press PotEng Density KinEng TotEng Lx Ly Lz Xlo Xhi Ylo Yhi Zlo Zhi Volume Dt
369734 3947.39 -4.43143e+06 2.79688 1.101e+06 -3.33042e+06 508.798 508.798 508.798 1745.6 2254.4 1745.6 2254.4 1745.6 2254.4 1.31715e+08 0.5
Loop time of 3.99799 on 4 procs for 50000 steps with 1000 atoms

unfix 3

fix 4 all nvt temp 370000 300 100.0

run 10000
Generated 0 of 1 mixed pair_coeff terms from geometric mixing rule
Step          Temp          Press          PotEng        Density         KinEng         TotEng           Lx             Ly             Lz            Xlo            Xhi            Ylo            Yhi            Zlo            Zhi           Volume           Dt            Time           CPU           T/CPU          S/CPU         CPULeft
6820000   367866.29      3853.7335     -4445207        2.796879       1095443       -3349763.9      508.79823      508.79823      508.79823      1745.6009      2254.3991      1745.6009      2254.3991      1745.6009      2254.3991      1.3171547e+08  0.5            3440000        0              0              0              0
Loop time of 0.79939 on 4 procs for 10000 steps with 1000 atoms

unfix 4

fix 5 all npt temp 300 300 $(100.0*dt) iso 1.0 1.0 $(1000.0*dt)
fix 5 all npt temp 300 300 50 iso 1.0 1.0 $(1000.0*dt)
fix 5 all npt temp 300 300 50 iso 1.0 1.0 500

run 30000
Generated 0 of 1 mixed pair_coeff terms from geometric mixing rule
Step          Temp          Press          PotEng        Density         KinEng         TotEng           Lx             Ly             Lz            Xlo            Xhi            Ylo            Yhi            Zlo            Zhi           Volume           Dt            Time           CPU           T/CPU          S/CPU         CPULeft
6830000   9576.851       950.6921      -4946244        2.796879       28518.227     -4917725.7      508.79823      508.79823      508.79823      1745.6009      2254.3991      1745.6009      2254.3991      1745.6009      2254.3991      1.3171547e+08  0.5            3445000        0              0              0              0
Loop time of 2.79836 on 4 procs for 30000 steps with 1000 atoms

# run_style
run_style verlet

# write restart
write_restart ./pgnpmf/100/equpmf68.res
System init for write_restart ...
Generated 0 of 1 mixed pair_coeff terms from geometric mixing rule
