LAMMPS (23 Jun 2022 - Update 1)
# Read restart
read_restart ./pgnpmf/100/equpmf63.res
Reading restart file ...
  restart file = 23 Jun 2022, LAMMPS = 23 Jun 2022
  restoring atom style atomic from restart
  orthogonal box = (1745.2697 1745.2697 1745.2697) to (2254.7303 2254.7303 2254.7303)
  restoring pair style table from restart
  1000 atoms
  read_restart CPU = 0.003 seconds

# Settings

pair_style table spline 9941

pair_coeff 1 1 ./pgnpmf/N20.txt DE_GNP 75.6
pair_coeff 2 2 ./pgnpmf/N100.txt DE_GNP 115.92
pair_coeff 1 2 ./pgnpmf/mixed_potential.txt DE_GNP 95.66

#Neigh_list Calc Frequency

neigh_modify delay 0 every 1 check yes

# Saving Frequency (50 frames)

variable ts_save equal 5000

variable nts equal 5000/0.5
variable medium equal 10000*3
variable long equal 10000*5

# Dump
#dump_modify 1 first no sort id
dump 2 all cfg 50000 ./pgnpmf/100/equilibration/trajectory/dumpequ.tens_*.cfg mass type xs ys zs fx fy fz
dump_modify 2 element N20 N100

# thermo_style
thermo_style custom step temp press pe density ke etotal lx ly lz xlo xhi ylo yhi zlo zhi vol dt time cpu tpcpu spcpu cpuremain

# run info
timestep 0.5
thermo 5000

# fix

fix 1 all momentum 1000 linear 1 1 1 angular
variable T equal 300
fix 2 all nvt temp 300 370000 100.0

run 10000
Generated 0 of 1 mixed pair_coeff terms from geometric mixing rule
Unused restart file global fix info:
  fix style: npt, fix ID: 5
  update every 1 steps, delay 0 steps, check yes
Step          Temp          Press          PotEng        Density         KinEng         TotEng           Lx             Ly             Lz            Xlo            Xhi            Ylo            Yhi            Zlo            Zhi           Volume           Dt            Time           CPU           T/CPU          S/CPU         CPULeft
6360000   323.39755      2.3993089     -5065115        2.7859834      963.02268     -5064152        509.46065      509.46065      509.46065      1745.2697      2254.7303      1745.2697      2254.7303      1745.2697      2254.7303      1.3223059e+08  0.5            3210000        0              0              0              0
Loop time of 0.809225 on 4 procs for 10000 steps with 1000 atoms

unfix 2

fix 3 all nvt temp 370000 370000 $(100.0*dt) #iso 1.0 1.0 $(1000.0*dt)
fix 3 all nvt temp 370000 370000 50

run 50000
Generated 0 of 1 mixed pair_coeff terms from geometric mixing rule
Step          Temp          Press          PotEng        Density         KinEng         TotEng           Lx             Ly             Lz            Xlo            Xhi            Ylo            Yhi            Zlo            Zhi           Volume           Dt            Time           CPU           T/CPU          S/CPU         CPULeft
6370000   373884.25      2414.0293     -4661189.6      2.7859834      1113363.5     -3547826.2      509.46065      509.46065      509.46065      1745.2697      2254.7303      1745.2697      2254.7303      1745.2697      2254.7303      1.3223059e+08  0.5            3215000        0              0              0              0
Averages over the last 6 of 11 rows, steps 6395000 to 6420000:
Temp Press PotEng Density KinEng TotEng Lx Ly Lz Xlo Xhi Ylo Yhi Zlo Zhi Volume Dt
369889 3886.4 -4.41217e+06 2.78598 1.10147e+06 -3.3107e+06 509.461 509.461 509.461 1745.27 2254.73 1745.27 2254.73 1745.27 2254.73 1.32231e+08 0.5
Loop time of 4.11886 on 4 procs for 50000 steps with 1000 atoms

unfix 3

fix 4 all nvt temp 370000 300 100.0

run 10000
Generated 0 of 1 mixed pair_coeff terms from geometric mixing rule
Step          Temp          Press          PotEng        Density         KinEng         TotEng           Lx             Ly             Lz            Xlo            Xhi            Ylo            Yhi            Zlo            Zhi           Volume           Dt            Time           CPU           T/CPU          S/CPU         CPULeft
6420000   372148.61      4138.6504     -4353843.7      2.7859834      1108195       -3245648.6      509.46065      509.46065      509.46065      1745.2697      2254.7303      1745.2697      2254.7303      1745.2697      2254.7303      1.3223059e+08  0.5            3240000        0              0              0              0
Loop time of 0.815371 on 4 procs for 10000 steps with 1000 atoms

unfix 4

fix 5 all npt temp 300 300 $(100.0*dt) iso 1.0 1.0 $(1000.0*dt)
fix 5 all npt temp 300 300 50 iso 1.0 1.0 $(1000.0*dt)
fix 5 all npt temp 300 300 50 iso 1.0 1.0 500

run 30000
Generated 0 of 1 mixed pair_coeff terms from geometric mixing rule
Step          Temp          Press          PotEng        Density         KinEng         TotEng           Lx             Ly             Lz            Xlo            Xhi            Ylo            Yhi            Zlo            Zhi           Volume           Dt            Time           CPU           T/CPU          S/CPU         CPULeft
6430000   9617.8776      926.95034     -4916534.3      2.7859834      28640.397     -4887893.9      509.46065      509.46065      509.46065      1745.2697      2254.7303      1745.2697      2254.7303      1745.2697      2254.7303      1.3223059e+08  0.5            3245000        0              0              0              0
Loop time of 2.86785 on 4 procs for 30000 steps with 1000 atoms

# run_style
run_style verlet

# write restart
write_restart ./pgnpmf/100/equpmf64.res
System init for write_restart ...
Generated 0 of 1 mixed pair_coeff terms from geometric mixing rule
