LAMMPS (23 Jun 2022 - Update 1)
# Read restart
read_restart ./pgnpmf/1000/equpmf43.res
Reading restart file ...
  restart file = 23 Jun 2022, LAMMPS = 23 Jun 2022
  restoring atom style atomic from restart
  orthogonal box = (1757.6792 1757.6792 1757.6792) to (2242.3208 2242.3208 2242.3208)
  restoring pair style table from restart
  1000 atoms
  read_restart CPU = 0.007 seconds

# Settings

pair_style table spline 9941

pair_coeff 1 1 ./pgnpmf/N20.txt DE_GNP 75.6
pair_coeff 2 2 ./pgnpmf/N100.txt DE_GNP 115.92
pair_coeff 1 2 ./pgnpmf/mixed_potential.txt DE_GNP 95.66

#Neigh_list Calc Frequency

neigh_modify delay 0 every 1 check yes

# Saving Frequency (50 frames)

variable ts_save equal 5000

# Dump
#dump_modify 1 first no sort id
dump 2 all cfg 50000 ./pgnpmf/1000/equilibration/trajectory/dumpgen.tens_*.cfg mass type xs ys zs fx fy fz
dump_modify 2 element N20 N100

# thermo_style
thermo_style custom step temp press pe density ke etotal lx ly lz xlo xhi ylo yhi zlo zhi vol dt time cpu tpcpu spcpu cpuremain

# run info
timestep 0.5
thermo 200

# fix

fix 1 all momentum 1000 linear 1 1 1 angular
variable T equal 300
fix 2 all nvt temp 300 370000 100.0

run 100000
Generated 0 of 1 mixed pair_coeff terms from geometric mixing rule
Unused restart file global fix info:
  fix style: npt, fix ID: 5
  update every 1 steps, delay 0 steps, check yes
Step          Temp          Press          PotEng        Density         KinEng         TotEng           Lx             Ly             Lz            Xlo            Xhi            Ylo            Yhi            Zlo            Zhi           Volume           Dt            Time           CPU           T/CPU          S/CPU         CPULeft
43060000   294.21093     -2.6643492     -6007420        3.236298       876.1099      -6006543.9      484.64155      484.64155      484.64155      1757.6792      2242.3208      1757.6792      2242.3208      1757.6792      2242.3208      1.1383137e+08  0.5            21560000       0              0              0              0
Averages over the last 251 of 501 rows, steps 43110000 to 43160000:
Temp Press PotEng Density KinEng TotEng Lx Ly Lz Xlo Xhi Ylo Yhi Zlo Zhi Volume Dt
277675 5341.32 -5.3478e+06 3.2363 826870 -4.52093e+06 484.642 484.642 484.642 1757.68 2242.32 1757.68 2242.32 1757.68 2242.32 1.13831e+08 0.5
Loop time of 8.56553 on 4 procs for 100000 steps with 1000 atoms

unfix 2

fix 3 all nvt temp 370000 370000 $(100.0*dt) #iso 1.0 1.0 $(1000.0*dt)
fix 3 all nvt temp 370000 370000 50

run 500000
Generated 0 of 1 mixed pair_coeff terms from geometric mixing rule
Step          Temp          Press          PotEng        Density         KinEng         TotEng           Lx             Ly             Lz            Xlo            Xhi            Ylo            Yhi            Zlo            Zhi           Volume           Dt            Time           CPU           T/CPU          S/CPU         CPULeft
43160000   359929.21      6922.1055     -5080814.5      3.236298       1071807.7     -4009006.7      484.64155      484.64155      484.64155      1757.6792      2242.3208      1757.6792      2242.3208      1757.6792      2242.3208      1.1383137e+08  0.5            21610000       0              0              0              0
Averages over the last 1251 of 2501 rows, steps 43410000 to 43660000:
Temp Press PotEng Density KinEng TotEng Lx Ly Lz Xlo Xhi Ylo Yhi Zlo Zhi Volume Dt
369945 6815.11 -5.09597e+06 3.2363 1.10163e+06 -3.99434e+06 484.642 484.642 484.642 1757.68 2242.32 1757.68 2242.32 1757.68 2242.32 1.13831e+08 0.5
Loop time of 43.8281 on 4 procs for 500000 steps with 1000 atoms

unfix 3

fix 4 all nvt temp 370000 300 100.0

run 100000
Generated 0 of 1 mixed pair_coeff terms from geometric mixing rule
Step          Temp          Press          PotEng        Density         KinEng         TotEng           Lx             Ly             Lz            Xlo            Xhi            Ylo            Yhi            Zlo            Zhi           Volume           Dt            Time           CPU           T/CPU          S/CPU         CPULeft
43660000   360372.82      6667.0647     -5111685.9      3.236298       1073128.7     -4038557.2      484.64155      484.64155      484.64155      1757.6792      2242.3208      1757.6792      2242.3208      1757.6792      2242.3208      1.1383137e+08  0.5            21860000       0              0              0              0
Averages over the last 251 of 501 rows, steps 43710000 to 43760000:
Temp Press PotEng Density KinEng TotEng Lx Ly Lz Xlo Xhi Ylo Yhi Zlo Zhi Volume Dt
93176.9 1938.94 -5.79175e+06 3.2363 277465 -5.51428e+06 484.642 484.642 484.642 1757.68 2242.32 1757.68 2242.32 1757.68 2242.32 1.13831e+08 0.5
Loop time of 8.84526 on 4 procs for 100000 steps with 1000 atoms

unfix 4

fix 5 all npt temp 300 300 $(100.0*dt) iso 1.0 1.0 $(1000.0*dt)
fix 5 all npt temp 300 300 50 iso 1.0 1.0 $(1000.0*dt)
fix 5 all npt temp 300 300 50 iso 1.0 1.0 500

run 300000
Generated 0 of 1 mixed pair_coeff terms from geometric mixing rule
Step          Temp          Press          PotEng        Density         KinEng         TotEng           Lx             Ly             Lz            Xlo            Xhi            Ylo            Yhi            Zlo            Zhi           Volume           Dt            Time           CPU           T/CPU          S/CPU         CPULeft
43760000   1408.5362      55.884496     -6012123.2      3.236298       4194.3803     -6007928.8      484.64155      484.64155      484.64155      1757.6792      2242.3208      1757.6792      2242.3208      1757.6792      2242.3208      1.1383137e+08  0.5            21910000       0              0              0              0
Averages over the last 751 of 1501 rows, steps 43910000 to 44060000:
Temp Press PotEng Density KinEng TotEng Lx Ly Lz Xlo Xhi Ylo Yhi Zlo Zhi Volume Dt
300.115 0.922868 -6.01143e+06 3.23689 893.69 -6.01053e+06 484.612 484.612 484.612 1757.69 2242.31 1757.69 2242.31 1757.69 2242.31 1.13811e+08 0.5
Loop time of 30.1105 on 4 procs for 300000 steps with 1000 atoms

# run_style
run_style verlet

# write restart
write_restart ./pgnpmf/1000/equpmf44.res
System init for write_restart ...
Generated 0 of 1 mixed pair_coeff terms from geometric mixing rule
