LAMMPS (23 Jun 2022 - Update 1)
# Read restart
read_restart ./pgnpmf/1000/equpmf12.res
Reading restart file ...
  restart file = 23 Jun 2022, LAMMPS = 23 Jun 2022
  restoring atom style atomic from restart
  orthogonal box = (1751.0966 1751.0966 1751.0966) to (2248.9034 2248.9034 2248.9034)
  restoring pair style table from restart
  1000 atoms
  read_restart CPU = 0.007 seconds

# Settings

pair_style table spline 9941

pair_coeff 1 1 ./pgnpmf/N20.txt DE_GNP 75.6
pair_coeff 2 2 ./pgnpmf/N100.txt DE_GNP 115.92
pair_coeff 1 2 ./pgnpmf/mixed_potential.txt DE_GNP 95.66

#Neigh_list Calc Frequency

neigh_modify delay 0 every 1 check yes

# Saving Frequency (50 frames)

variable ts_save equal 5000

# Dump
#dump_modify 1 first no sort id
dump 2 all cfg 50000 ./pgnpmf/1000/equilibration/trajectory/dumpgen.tens_*.cfg mass type xs ys zs fx fy fz
dump_modify 2 element N20 N100

# thermo_style
thermo_style custom step temp press pe density ke etotal lx ly lz xlo xhi ylo yhi zlo zhi vol dt time cpu tpcpu spcpu cpuremain

# run info
timestep 0.5
thermo 200

# fix

fix 1 all momentum 1000 linear 1 1 1 angular
variable T equal 300
fix 2 all nvt temp 300 370000 100.0

run 100000
Generated 0 of 1 mixed pair_coeff terms from geometric mixing rule
Unused restart file global fix info:
  fix style: npt, fix ID: 5
  update every 1 steps, delay 0 steps, check yes
Step          Temp          Press          PotEng        Density         KinEng         TotEng           Lx             Ly             Lz            Xlo            Xhi            Ylo            Yhi            Zlo            Zhi           Volume           Dt            Time           CPU           T/CPU          S/CPU         CPULeft
12060000   309.1489      -1.4884511     -5563241.3      2.9862633      920.59263     -5562320.7      497.80675      497.80675      497.80675      1751.0966      2248.9034      1751.0966      2248.9034      1751.0966      2248.9034      1.2336227e+08  0.5            6060000        0              0              0              0
Averages over the last 251 of 501 rows, steps 12110000 to 12160000:
Temp Press PotEng Density KinEng TotEng Lx Ly Lz Xlo Xhi Ylo Yhi Zlo Zhi Volume Dt
277510 4970.74 -4.775e+06 2.98626 826376 -3.94862e+06 497.807 497.807 497.807 1751.1 2248.9 1751.1 2248.9 1751.1 2248.9 1.23362e+08 0.5
Loop time of 8.30572 on 4 procs for 100000 steps with 1000 atoms

unfix 2

fix 3 all nvt temp 370000 370000 $(100.0*dt) #iso 1.0 1.0 $(1000.0*dt)
fix 3 all nvt temp 370000 370000 50

run 500000
Generated 0 of 1 mixed pair_coeff terms from geometric mixing rule
Step          Temp          Press          PotEng        Density         KinEng         TotEng           Lx             Ly             Lz            Xlo            Xhi            Ylo            Yhi            Zlo            Zhi           Volume           Dt            Time           CPU           T/CPU          S/CPU         CPULeft
12160000   372476.51      6175.7935     -4540156.9      2.9862633      1109171.5     -3430985.4      497.80675      497.80675      497.80675      1751.0966      2248.9034      1751.0966      2248.9034      1751.0966      2248.9034      1.2336227e+08  0.5            6110000        0              0              0              0
Averages over the last 1251 of 2501 rows, steps 12410000 to 12660000:
Temp Press PotEng Density KinEng TotEng Lx Ly Lz Xlo Xhi Ylo Yhi Zlo Zhi Volume Dt
369937 6033.83 -4.54994e+06 2.98626 1.10161e+06 -3.44833e+06 497.807 497.807 497.807 1751.1 2248.9 1751.1 2248.9 1751.1 2248.9 1.23362e+08 0.5
Loop time of 41.4149 on 4 procs for 500000 steps with 1000 atoms

unfix 3

fix 4 all nvt temp 370000 300 100.0

run 100000
Generated 0 of 1 mixed pair_coeff terms from geometric mixing rule
Step          Temp          Press          PotEng        Density         KinEng         TotEng           Lx             Ly             Lz            Xlo            Xhi            Ylo            Yhi            Zlo            Zhi           Volume           Dt            Time           CPU           T/CPU          S/CPU         CPULeft
12660000   351254.93      6058.784      -4543841.6      2.9862633      1045977.2     -3497864.4      497.80675      497.80675      497.80675      1751.0966      2248.9034      1751.0966      2248.9034      1751.0966      2248.9034      1.2336227e+08  0.5            6360000        0              0              0              0
Averages over the last 251 of 501 rows, steps 12710000 to 12760000:
Temp Press PotEng Density KinEng TotEng Lx Ly Lz Xlo Xhi Ylo Yhi Zlo Zhi Volume Dt
92969.2 1766.26 -5.27157e+06 2.98626 276846 -4.99473e+06 497.807 497.807 497.807 1751.1 2248.9 1751.1 2248.9 1751.1 2248.9 1.23362e+08 0.5
Loop time of 8.21742 on 4 procs for 100000 steps with 1000 atoms

unfix 4

fix 5 all npt temp 300 300 $(100.0*dt) iso 1.0 1.0 $(1000.0*dt)
fix 5 all npt temp 300 300 50 iso 1.0 1.0 $(1000.0*dt)
fix 5 all npt temp 300 300 50 iso 1.0 1.0 500

run 300000
Generated 0 of 1 mixed pair_coeff terms from geometric mixing rule
Step          Temp          Press          PotEng        Density         KinEng         TotEng           Lx             Ly             Lz            Xlo            Xhi            Ylo            Yhi            Zlo            Zhi           Volume           Dt            Time           CPU           T/CPU          S/CPU         CPULeft
12760000   1406.6721      124.55771     -5507127.6      2.9862633      4188.8293     -5502938.7      497.80675      497.80675      497.80675      1751.0966      2248.9034      1751.0966      2248.9034      1751.0966      2248.9034      1.2336227e+08  0.5            6410000        0              0              0              0
Averages over the last 751 of 1501 rows, steps 12910000 to 13060000:
Temp Press PotEng Density KinEng TotEng Lx Ly Lz Xlo Xhi Ylo Yhi Zlo Zhi Volume Dt
300.278 0.721568 -5.57931e+06 2.99327 894.177 -5.57841e+06 497.418 497.418 497.418 1751.29 2248.71 1751.29 2248.71 1751.29 2248.71 1.23073e+08 0.5
Loop time of 29.0044 on 4 procs for 300000 steps with 1000 atoms

# run_style
run_style verlet

# write restart
write_restart ./pgnpmf/1000/equpmf13.res
System init for write_restart ...
Generated 0 of 1 mixed pair_coeff terms from geometric mixing rule
