LAMMPS (23 Jun 2022 - Update 1)
# Read restart
read_restart ./pgnpmf/1000/equpmf1.res
Reading restart file ...
  restart file = 23 Jun 2022, LAMMPS = 23 Jun 2022
  restoring atom style atomic from restart
  orthogonal box = (954.99412 954.99412 954.99412) to (3045.0059 3045.0059 3045.0059)
  restoring pair style table from restart
  1000 atoms
  read_restart CPU = 0.008 seconds

# Settings

pair_style table spline 9941

pair_coeff 1 1 ./pgnpmf/N20.txt DE_GNP 75.6
pair_coeff 2 2 ./pgnpmf/N100.txt DE_GNP 115.92
pair_coeff 1 2 ./pgnpmf/mixed_potential.txt DE_GNP 95.66

#Neigh_list Calc Frequency

neigh_modify delay 0 every 1 check yes

# Saving Frequency (50 frames)

variable ts_save equal 5000

# Dump
#dump_modify 1 first no sort id
dump 2 all cfg 50000 ./pgnpmf/1000/equilibration/trajectory/dumpgen.tens_*.cfg mass type xs ys zs fx fy fz
dump_modify 2 element N20 N100

# thermo_style
thermo_style custom step temp press pe density ke etotal lx ly lz xlo xhi ylo yhi zlo zhi vol dt time cpu tpcpu spcpu cpuremain

# run info
timestep 0.5
thermo 200

# fix

fix 1 all momentum 1000 linear 1 1 1 angular
variable T equal 300
fix 2 all nvt temp 300 370000 100.0

run 100000
Generated 0 of 1 mixed pair_coeff terms from geometric mixing rule
Unused restart file global fix info:
  fix style: npt, fix ID: 5
  update every 1 steps, delay 0 steps, check yes
Step          Temp          Press          PotEng        Density         KinEng         TotEng           Lx             Ly             Lz            Xlo            Xhi            Ylo            Yhi            Zlo            Zhi           Volume           Dt            Time           CPU           T/CPU          S/CPU         CPULeft
1060000   319.31789      1.0046723     -394663.81      0.040351926    950.87414     -393712.93      2090.0118      2090.0118      2090.0118      954.99412      3045.0059      954.99412      3045.0059      954.99412      3045.0059      9.129483e+09   0.5            560000         0              0              0              0
Averages over the last 251 of 501 rows, steps 1110000 to 1160000:
Temp Press PotEng Density KinEng TotEng Lx Ly Lz Xlo Xhi Ylo Yhi Zlo Zhi Volume Dt
277490 4.43274 -244361 0.0403519 826317 581956 2090.01 2090.01 2090.01 954.994 3045.01 954.994 3045.01 954.994 3045.01 9.12948e+09 0.5
Loop time of 4.36354 on 4 procs for 100000 steps with 1000 atoms

unfix 2

fix 3 all nvt temp 370000 370000 $(100.0*dt) #iso 1.0 1.0 $(1000.0*dt)
fix 3 all nvt temp 370000 370000 50

run 500000
Generated 0 of 1 mixed pair_coeff terms from geometric mixing rule
Step          Temp          Press          PotEng        Density         KinEng         TotEng           Lx             Ly             Lz            Xlo            Xhi            Ylo            Yhi            Zlo            Zhi           Volume           Dt            Time           CPU           T/CPU          S/CPU         CPULeft
1160000   359076.32      5.6332323     -242708.2       0.040351926    1069268        826559.75      2090.0118      2090.0118      2090.0118      954.99412      3045.0059      954.99412      3045.0059      954.99412      3045.0059      9.129483e+09   0.5            610000         0              0              0              0
Averages over the last 1251 of 2501 rows, steps 1410000 to 1660000:
Temp Press PotEng Density KinEng TotEng Lx Ly Lz Xlo Xhi Ylo Yhi Zlo Zhi Volume Dt
369994 5.35852 -147479 0.0403519 1.10178e+06 954299 2090.01 2090.01 2090.01 954.994 3045.01 954.994 3045.01 954.994 3045.01 9.12948e+09 0.5
Loop time of 17.5156 on 4 procs for 500000 steps with 1000 atoms

unfix 3

fix 4 all nvt temp 370000 300 100.0

run 100000
Generated 0 of 1 mixed pair_coeff terms from geometric mixing rule
Step          Temp          Press          PotEng        Density         KinEng         TotEng           Lx             Ly             Lz            Xlo            Xhi            Ylo            Yhi            Zlo            Zhi           Volume           Dt            Time           CPU           T/CPU          S/CPU         CPULeft
1660000   352136.69      5.2956734     -133775.6       0.040351926    1048602.9      914827.34      2090.0118      2090.0118      2090.0118      954.99412      3045.0059      954.99412      3045.0059      954.99412      3045.0059      9.129483e+09   0.5            860000         0              0              0              0
Averages over the last 251 of 501 rows, steps 1710000 to 1760000:
Temp Press PotEng Density KinEng TotEng Lx Ly Lz Xlo Xhi Ylo Yhi Zlo Zhi Volume Dt
92732.2 1.04809 -156450 0.0403519 276141 119691 2090.01 2090.01 2090.01 954.994 3045.01 954.994 3045.01 954.994 3045.01 9.12948e+09 0.5
Loop time of 2.69364 on 4 procs for 100000 steps with 1000 atoms

unfix 4

fix 5 all npt temp 300 300 $(100.0*dt) iso 1.0 1.0 $(1000.0*dt)
fix 5 all npt temp 300 300 50 iso 1.0 1.0 $(1000.0*dt)
fix 5 all npt temp 300 300 50 iso 1.0 1.0 500

run 300000
Generated 0 of 1 mixed pair_coeff terms from geometric mixing rule
Step          Temp          Press          PotEng        Density         KinEng         TotEng           Lx             Ly             Lz            Xlo            Xhi            Ylo            Yhi            Zlo            Zhi           Volume           Dt            Time           CPU           T/CPU          S/CPU         CPULeft
1760000   1165.5274     -0.44936209    -179965.67      0.040351926    3470.7414     -176494.93      2090.0118      2090.0118      2090.0118      954.99412      3045.0059      954.99412      3045.0059      954.99412      3045.0059      9.129483e+09   0.5            910000         0              0              0              0
Averages over the last 751 of 1501 rows, steps 1910000 to 2060000:
Temp Press PotEng Density KinEng TotEng Lx Ly Lz Xlo Xhi Ylo Yhi Zlo Zhi Volume Dt
311.412 0.997401 -364118 0.111145 927.332 -363190 1497.88 1497.88 1497.88 1251.06 2748.94 1251.06 2748.94 1251.06 2748.94 3.38421e+09 0.5
Loop time of 13.4413 on 4 procs for 300000 steps with 1000 atoms

# run_style
run_style verlet

# write restart
write_restart ./pgnpmf/1000/equpmf2.res
System init for write_restart ...
Generated 0 of 1 mixed pair_coeff terms from geometric mixing rule
