LAMMPS (23 Jun 2022 - Update 1)
# Read restart
read_restart ./pgnpmf/1000/equpmf68.res
Reading restart file ...
  restart file = 23 Jun 2022, LAMMPS = 23 Jun 2022
  restoring atom style atomic from restart
  orthogonal box = (1757.5599 1757.5599 1757.5599) to (2242.4401 2242.4401 2242.4401)
  restoring pair style table from restart
  1000 atoms
  read_restart CPU = 0.010 seconds

# Settings

pair_style table spline 9941

pair_coeff 1 1 ./pgnpmf/N20.txt DE_GNP 75.6
pair_coeff 2 2 ./pgnpmf/N100.txt DE_GNP 115.92
pair_coeff 1 2 ./pgnpmf/mixed_potential.txt DE_GNP 95.66

#Neigh_list Calc Frequency

neigh_modify delay 0 every 1 check yes

# Saving Frequency (50 frames)

variable ts_save equal 5000

# Dump
#dump_modify 1 first no sort id
dump 2 all cfg 50000 ./pgnpmf/1000/equilibration/trajectory/dumpgen.tens_*.cfg mass type xs ys zs fx fy fz
dump_modify 2 element N20 N100

# thermo_style
thermo_style custom step temp press pe density ke etotal lx ly lz xlo xhi ylo yhi zlo zhi vol dt time cpu tpcpu spcpu cpuremain

# run info
timestep 0.5
thermo 200

# fix

fix 1 all momentum 1000 linear 1 1 1 angular
variable T equal 300
fix 2 all nvt temp 300 370000 100.0

run 100000
Generated 0 of 1 mixed pair_coeff terms from geometric mixing rule
Unused restart file global fix info:
  fix style: npt, fix ID: 5
  update every 1 steps, delay 0 steps, check yes
Step          Temp          Press          PotEng        Density         KinEng         TotEng           Lx             Ly             Lz            Xlo            Xhi            Ylo            Yhi            Zlo            Zhi           Volume           Dt            Time           CPU           T/CPU          S/CPU         CPULeft
68060000   289.74901     -10.015167     -6013458.4      3.2315231      862.82307     -6012595.5      484.88014      484.88014      484.88014      1757.5599      2242.4401      1757.5599      2242.4401      1757.5599      2242.4401      1.1399956e+08  0.5            34060000       0              0              0              0
Averages over the last 251 of 501 rows, steps 68110000 to 68160000:
Temp Press PotEng Density KinEng TotEng Lx Ly Lz Xlo Xhi Ylo Yhi Zlo Zhi Volume Dt
277294 5830.94 -5.30409e+06 3.23152 825736 -4.47836e+06 484.88 484.88 484.88 1757.56 2242.44 1757.56 2242.44 1757.56 2242.44 1.14e+08 0.5
Loop time of 8.49846 on 4 procs for 100000 steps with 1000 atoms

unfix 2

fix 3 all nvt temp 370000 370000 $(100.0*dt) #iso 1.0 1.0 $(1000.0*dt)
fix 3 all nvt temp 370000 370000 50

run 500000
Generated 0 of 1 mixed pair_coeff terms from geometric mixing rule
Step          Temp          Press          PotEng        Density         KinEng         TotEng           Lx             Ly             Lz            Xlo            Xhi            Ylo            Yhi            Zlo            Zhi           Volume           Dt            Time           CPU           T/CPU          S/CPU         CPULeft
68160000   372853.77      7436.5176     -5043619.5      3.2315231      1110294.9     -3933324.6      484.88014      484.88014      484.88014      1757.5599      2242.4401      1757.5599      2242.4401      1757.5599      2242.4401      1.1399956e+08  0.5            34110000       0              0              0              0
Averages over the last 1251 of 2501 rows, steps 68410000 to 68660000:
Temp Press PotEng Density KinEng TotEng Lx Ly Lz Xlo Xhi Ylo Yhi Zlo Zhi Volume Dt
369856 6922.13 -5.07078e+06 3.23152 1.10137e+06 -3.96941e+06 484.88 484.88 484.88 1757.56 2242.44 1757.56 2242.44 1757.56 2242.44 1.14e+08 0.5
Loop time of 43.2158 on 4 procs for 500000 steps with 1000 atoms

unfix 3

fix 4 all nvt temp 370000 300 100.0

run 100000
Generated 0 of 1 mixed pair_coeff terms from geometric mixing rule
Step          Temp          Press          PotEng        Density         KinEng         TotEng           Lx             Ly             Lz            Xlo            Xhi            Ylo            Yhi            Zlo            Zhi           Volume           Dt            Time           CPU           T/CPU          S/CPU         CPULeft
68660000   378846.96      6771.4261     -5096748.3      3.2315231      1128141.5     -3968606.8      484.88014      484.88014      484.88014      1757.5599      2242.4401      1757.5599      2242.4401      1757.5599      2242.4401      1.1399956e+08  0.5            34360000       0              0              0              0
Averages over the last 251 of 501 rows, steps 68710000 to 68760000:
Temp Press PotEng Density KinEng TotEng Lx Ly Lz Xlo Xhi Ylo Yhi Zlo Zhi Volume Dt
92812.3 2029.33 -5.77729e+06 3.23152 276379 -5.50091e+06 484.88 484.88 484.88 1757.56 2242.44 1757.56 2242.44 1757.56 2242.44 1.14e+08 0.5
Loop time of 8.44711 on 4 procs for 100000 steps with 1000 atoms

unfix 4

fix 5 all npt temp 300 300 $(100.0*dt) iso 1.0 1.0 $(1000.0*dt)
fix 5 all npt temp 300 300 50 iso 1.0 1.0 $(1000.0*dt)
fix 5 all npt temp 300 300 50 iso 1.0 1.0 500

run 300000
Generated 0 of 1 mixed pair_coeff terms from geometric mixing rule
Step          Temp          Press          PotEng        Density         KinEng         TotEng           Lx             Ly             Lz            Xlo            Xhi            Ylo            Yhi            Zlo            Zhi           Volume           Dt            Time           CPU           T/CPU          S/CPU         CPULeft
68760000   1407.3817      194.40324     -5984354.7      3.2315231      4190.9424     -5980163.8      484.88014      484.88014      484.88014      1757.5599      2242.4401      1757.5599      2242.4401      1757.5599      2242.4401      1.1399956e+08  0.5            34410000       0              0              0              0
Averages over the last 751 of 1501 rows, steps 68910000 to 69060000:
Temp Press PotEng Density KinEng TotEng Lx Ly Lz Xlo Xhi Ylo Yhi Zlo Zhi Volume Dt
299.951 0.905673 -5.99501e+06 3.22615 893.204 -5.99411e+06 485.149 485.149 485.149 1757.43 2242.57 1757.43 2242.57 1757.43 2242.57 1.1419e+08 0.5
Loop time of 28.859 on 4 procs for 300000 steps with 1000 atoms

# run_style
run_style verlet

# write restart
write_restart ./pgnpmf/1000/equpmf69.res
System init for write_restart ...
Generated 0 of 1 mixed pair_coeff terms from geometric mixing rule
