LAMMPS (23 Jun 2022 - Update 1)
# Read restart
read_restart ./pgnpmf/1000/equpmf62.res
Reading restart file ...
  restart file = 23 Jun 2022, LAMMPS = 23 Jun 2022
  restoring atom style atomic from restart
  orthogonal box = (1757.6518 1757.6518 1757.6518) to (2242.3482 2242.3482 2242.3482)
  restoring pair style table from restart
  1000 atoms
  read_restart CPU = 0.006 seconds

# Settings

pair_style table spline 9941

pair_coeff 1 1 ./pgnpmf/N20.txt DE_GNP 75.6
pair_coeff 2 2 ./pgnpmf/N100.txt DE_GNP 115.92
pair_coeff 1 2 ./pgnpmf/mixed_potential.txt DE_GNP 95.66

#Neigh_list Calc Frequency

neigh_modify delay 0 every 1 check yes

# Saving Frequency (50 frames)

variable ts_save equal 5000

# Dump
#dump_modify 1 first no sort id
dump 2 all cfg 50000 ./pgnpmf/1000/equilibration/trajectory/dumpgen.tens_*.cfg mass type xs ys zs fx fy fz
dump_modify 2 element N20 N100

# thermo_style
thermo_style custom step temp press pe density ke etotal lx ly lz xlo xhi ylo yhi zlo zhi vol dt time cpu tpcpu spcpu cpuremain

# run info
timestep 0.5
thermo 200

# fix

fix 1 all momentum 1000 linear 1 1 1 angular
variable T equal 300
fix 2 all nvt temp 300 370000 100.0

run 100000
Generated 0 of 1 mixed pair_coeff terms from geometric mixing rule
Unused restart file global fix info:
  fix style: npt, fix ID: 5
  update every 1 steps, delay 0 steps, check yes
Step          Temp          Press          PotEng        Density         KinEng         TotEng           Lx             Ly             Lz            Xlo            Xhi            Ylo            Yhi            Zlo            Zhi           Volume           Dt            Time           CPU           T/CPU          S/CPU         CPULeft
62060000   301.42684      12.662796     -5996178.3      3.2351993      897.59766     -5995280.7      484.69641      484.69641      484.69641      1757.6518      2242.3482      1757.6518      2242.3482      1757.6518      2242.3482      1.1387002e+08  0.5            31060000       0              0              0              0
Averages over the last 251 of 501 rows, steps 62110000 to 62160000:
Temp Press PotEng Density KinEng TotEng Lx Ly Lz Xlo Xhi Ylo Yhi Zlo Zhi Volume Dt
277262 5328.91 -5.34899e+06 3.2352 825639 -4.52336e+06 484.696 484.696 484.696 1757.65 2242.35 1757.65 2242.35 1757.65 2242.35 1.1387e+08 0.5
Loop time of 8.81946 on 4 procs for 100000 steps with 1000 atoms

unfix 2

fix 3 all nvt temp 370000 370000 $(100.0*dt) #iso 1.0 1.0 $(1000.0*dt)
fix 3 all nvt temp 370000 370000 50

run 500000
Generated 0 of 1 mixed pair_coeff terms from geometric mixing rule
Step          Temp          Press          PotEng        Density         KinEng         TotEng           Lx             Ly             Lz            Xlo            Xhi            Ylo            Yhi            Zlo            Zhi           Volume           Dt            Time           CPU           T/CPU          S/CPU         CPULeft
62160000   382530.38      6849.6628     -5075100.5      3.2351993      1139110.2     -3935990.3      484.69641      484.69641      484.69641      1757.6518      2242.3482      1757.6518      2242.3482      1757.6518      2242.3482      1.1387002e+08  0.5            31110000       0              0              0              0
Averages over the last 1251 of 2501 rows, steps 62410000 to 62660000:
Temp Press PotEng Density KinEng TotEng Lx Ly Lz Xlo Xhi Ylo Yhi Zlo Zhi Volume Dt
370203 6811.48 -5.10317e+06 3.2352 1.1024e+06 -4.00077e+06 484.696 484.696 484.696 1757.65 2242.35 1757.65 2242.35 1757.65 2242.35 1.1387e+08 0.5
Loop time of 44.9582 on 4 procs for 500000 steps with 1000 atoms

unfix 3

fix 4 all nvt temp 370000 300 100.0

run 100000
Generated 0 of 1 mixed pair_coeff terms from geometric mixing rule
Step          Temp          Press          PotEng        Density         KinEng         TotEng           Lx             Ly             Lz            Xlo            Xhi            Ylo            Yhi            Zlo            Zhi           Volume           Dt            Time           CPU           T/CPU          S/CPU         CPULeft
62660000   370560.27      6811.4363     -5106988.3      3.2351993      1103465.2     -4003523.1      484.69641      484.69641      484.69641      1757.6518      2242.3482      1757.6518      2242.3482      1757.6518      2242.3482      1.1387002e+08  0.5            31360000       0              0              0              0
Averages over the last 251 of 501 rows, steps 62710000 to 62760000:
Temp Press PotEng Density KinEng TotEng Lx Ly Lz Xlo Xhi Ylo Yhi Zlo Zhi Volume Dt
92888.9 1905.82 -5.80552e+06 3.2352 276607 -5.52891e+06 484.696 484.696 484.696 1757.65 2242.35 1757.65 2242.35 1757.65 2242.35 1.1387e+08 0.5
Loop time of 8.82694 on 4 procs for 100000 steps with 1000 atoms

unfix 4

fix 5 all npt temp 300 300 $(100.0*dt) iso 1.0 1.0 $(1000.0*dt)
fix 5 all npt temp 300 300 50 iso 1.0 1.0 $(1000.0*dt)
fix 5 all npt temp 300 300 50 iso 1.0 1.0 500

run 300000
Generated 0 of 1 mixed pair_coeff terms from geometric mixing rule
Step          Temp          Press          PotEng        Density         KinEng         TotEng           Lx             Ly             Lz            Xlo            Xhi            Ylo            Yhi            Zlo            Zhi           Volume           Dt            Time           CPU           T/CPU          S/CPU         CPULeft
62760000   1392.0966      30.251911     -6037289.7      3.2351993      4145.4258     -6033144.3      484.69641      484.69641      484.69641      1757.6518      2242.3482      1757.6518      2242.3482      1757.6518      2242.3482      1.1387002e+08  0.5            31410000       0              0              0              0
Averages over the last 751 of 1501 rows, steps 62910000 to 63060000:
Temp Press PotEng Density KinEng TotEng Lx Ly Lz Xlo Xhi Ylo Yhi Zlo Zhi Volume Dt
299.948 0.400448 -6.07184e+06 3.23258 893.193 -6.07094e+06 484.828 484.828 484.828 1757.59 2242.41 1757.59 2242.41 1757.59 2242.41 1.13962e+08 0.5
Loop time of 30.3434 on 4 procs for 300000 steps with 1000 atoms

# run_style
run_style verlet

# write restart
write_restart ./pgnpmf/1000/equpmf63.res
System init for write_restart ...
Generated 0 of 1 mixed pair_coeff terms from geometric mixing rule
