LAMMPS (23 Jun 2022 - Update 1)
# Read restart
read_restart ./pgnpmf/1000/equpmf32.res
Reading restart file ...
  restart file = 23 Jun 2022, LAMMPS = 23 Jun 2022
  restoring atom style atomic from restart
  orthogonal box = (1757.3113 1757.3113 1757.3113) to (2242.6887 2242.6887 2242.6887)
  restoring pair style table from restart
  1000 atoms
  read_restart CPU = 0.003 seconds

# Settings

pair_style table spline 9941

pair_coeff 1 1 ./pgnpmf/N20.txt DE_GNP 75.6
pair_coeff 2 2 ./pgnpmf/N100.txt DE_GNP 115.92
pair_coeff 1 2 ./pgnpmf/mixed_potential.txt DE_GNP 95.66

#Neigh_list Calc Frequency

neigh_modify delay 0 every 1 check yes

# Saving Frequency (50 frames)

variable ts_save equal 5000

# Dump
#dump_modify 1 first no sort id
dump 2 all cfg 50000 ./pgnpmf/1000/equilibration/trajectory/dumpgen.tens_*.cfg mass type xs ys zs fx fy fz
dump_modify 2 element N20 N100

# thermo_style
thermo_style custom step temp press pe density ke etotal lx ly lz xlo xhi ylo yhi zlo zhi vol dt time cpu tpcpu spcpu cpuremain

# run info
timestep 0.5
thermo 200

# fix

fix 1 all momentum 1000 linear 1 1 1 angular
variable T equal 300
fix 2 all nvt temp 300 370000 100.0

run 100000
Generated 0 of 1 mixed pair_coeff terms from geometric mixing rule
Unused restart file global fix info:
  fix style: npt, fix ID: 5
  update every 1 steps, delay 0 steps, check yes
Step          Temp          Press          PotEng        Density         KinEng         TotEng           Lx             Ly             Lz            Xlo            Xhi            Ylo            Yhi            Zlo            Zhi           Volume           Dt            Time           CPU           T/CPU          S/CPU         CPULeft
32060000   304.92066     -8.5527028     -5975378.9      3.2216033      908.00165     -5974470.9      485.3773       485.3773       485.3773       1757.3113      2242.6887      1757.3113      2242.6887      1757.3113      2242.6887      1.1435059e+08  0.5            16060000       0              0              0              0
Averages over the last 251 of 501 rows, steps 32110000 to 32160000:
Temp Press PotEng Density KinEng TotEng Lx Ly Lz Xlo Xhi Ylo Yhi Zlo Zhi Volume Dt
277092 5333.47 -5.30181e+06 3.2216 825133 -4.47668e+06 485.377 485.377 485.377 1757.31 2242.69 1757.31 2242.69 1757.31 2242.69 1.14351e+08 0.5
Loop time of 8.54091 on 4 procs for 100000 steps with 1000 atoms

unfix 2

fix 3 all nvt temp 370000 370000 $(100.0*dt) #iso 1.0 1.0 $(1000.0*dt)
fix 3 all nvt temp 370000 370000 50

run 500000
Generated 0 of 1 mixed pair_coeff terms from geometric mixing rule
Step          Temp          Press          PotEng        Density         KinEng         TotEng           Lx             Ly             Lz            Xlo            Xhi            Ylo            Yhi            Zlo            Zhi           Volume           Dt            Time           CPU           T/CPU          S/CPU         CPULeft
32160000   368651.9       6665.6856     -5070886.6      3.2216033      1097782.4     -3973104.2      485.3773       485.3773       485.3773       1757.3113      2242.6887      1757.3113      2242.6887      1757.3113      2242.6887      1.1435059e+08  0.5            16110000       0              0              0              0
Averages over the last 1251 of 2501 rows, steps 32410000 to 32660000:
Temp Press PotEng Density KinEng TotEng Lx Ly Lz Xlo Xhi Ylo Yhi Zlo Zhi Volume Dt
369952 6781.96 -5.06662e+06 3.2216 1.10165e+06 -3.96496e+06 485.377 485.377 485.377 1757.31 2242.69 1757.31 2242.69 1757.31 2242.69 1.14351e+08 0.5
Loop time of 43.3876 on 4 procs for 500000 steps with 1000 atoms

unfix 3

fix 4 all nvt temp 370000 300 100.0

run 100000
Generated 0 of 1 mixed pair_coeff terms from geometric mixing rule
Step          Temp          Press          PotEng        Density         KinEng         TotEng           Lx             Ly             Lz            Xlo            Xhi            Ylo            Yhi            Zlo            Zhi           Volume           Dt            Time           CPU           T/CPU          S/CPU         CPULeft
32660000   391884.41      6712.3977     -5092206.5      3.2216033      1166964.9     -3925241.7      485.3773       485.3773       485.3773       1757.3113      2242.6887      1757.3113      2242.6887      1757.3113      2242.6887      1.1435059e+08  0.5            16360000       0              0              0              0
Averages over the last 251 of 501 rows, steps 32710000 to 32760000:
Temp Press PotEng Density KinEng TotEng Lx Ly Lz Xlo Xhi Ylo Yhi Zlo Zhi Volume Dt
92964.7 1871.66 -5.7689e+06 3.2216 276833 -5.49207e+06 485.377 485.377 485.377 1757.31 2242.69 1757.31 2242.69 1757.31 2242.69 1.14351e+08 0.5
Loop time of 8.38097 on 4 procs for 100000 steps with 1000 atoms

unfix 4

fix 5 all npt temp 300 300 $(100.0*dt) iso 1.0 1.0 $(1000.0*dt)
fix 5 all npt temp 300 300 50 iso 1.0 1.0 $(1000.0*dt)
fix 5 all npt temp 300 300 50 iso 1.0 1.0 500

run 300000
Generated 0 of 1 mixed pair_coeff terms from geometric mixing rule
Step          Temp          Press          PotEng        Density         KinEng         TotEng           Lx             Ly             Lz            Xlo            Xhi            Ylo            Yhi            Zlo            Zhi           Volume           Dt            Time           CPU           T/CPU          S/CPU         CPULeft
32760000   1409.1377      16.137563     -5984301.5      3.2216033      4196.1715     -5980105.3      485.3773       485.3773       485.3773       1757.3113      2242.6887      1757.3113      2242.6887      1757.3113      2242.6887      1.1435059e+08  0.5            16410000       0              0              0              0
Averages over the last 751 of 1501 rows, steps 32910000 to 33060000:
Temp Press PotEng Density KinEng TotEng Lx Ly Lz Xlo Xhi Ylo Yhi Zlo Zhi Volume Dt
299.934 1.08285 -5.9778e+06 3.22042 893.153 -5.9769e+06 485.437 485.437 485.437 1757.28 2242.72 1757.28 2242.72 1757.28 2242.72 1.14392e+08 0.5
Loop time of 28.746 on 4 procs for 300000 steps with 1000 atoms

# run_style
run_style verlet

# write restart
write_restart ./pgnpmf/1000/equpmf33.res
System init for write_restart ...
Generated 0 of 1 mixed pair_coeff terms from geometric mixing rule
