LAMMPS (23 Jun 2022 - Update 1)
# Read restart
read_restart ./pgnpmf/1000/equpmf55.res
Reading restart file ...
  restart file = 23 Jun 2022, LAMMPS = 23 Jun 2022
  restoring atom style atomic from restart
  orthogonal box = (1757.5421 1757.5421 1757.5421) to (2242.4579 2242.4579 2242.4579)
  restoring pair style table from restart
  1000 atoms
  read_restart CPU = 0.005 seconds

# Settings

pair_style table spline 9941

pair_coeff 1 1 ./pgnpmf/N20.txt DE_GNP 75.6
pair_coeff 2 2 ./pgnpmf/N100.txt DE_GNP 115.92
pair_coeff 1 2 ./pgnpmf/mixed_potential.txt DE_GNP 95.66

#Neigh_list Calc Frequency

neigh_modify delay 0 every 1 check yes

# Saving Frequency (50 frames)

variable ts_save equal 5000

# Dump
#dump_modify 1 first no sort id
dump 2 all cfg 50000 ./pgnpmf/1000/equilibration/trajectory/dumpgen.tens_*.cfg mass type xs ys zs fx fy fz
dump_modify 2 element N20 N100

# thermo_style
thermo_style custom step temp press pe density ke etotal lx ly lz xlo xhi ylo yhi zlo zhi vol dt time cpu tpcpu spcpu cpuremain

# run info
timestep 0.5
thermo 200

# fix

fix 1 all momentum 1000 linear 1 1 1 angular
variable T equal 300
fix 2 all nvt temp 300 370000 100.0

run 100000
Generated 0 of 1 mixed pair_coeff terms from geometric mixing rule
Unused restart file global fix info:
  fix style: npt, fix ID: 5
  update every 1 steps, delay 0 steps, check yes
Step          Temp          Press          PotEng        Density         KinEng         TotEng           Lx             Ly             Lz            Xlo            Xhi            Ylo            Yhi            Zlo            Zhi           Volume           Dt            Time           CPU           T/CPU          S/CPU         CPULeft
55060000   303.64128     -18.991189     -6040463.2      3.2308106      904.19189     -6039559        484.91578      484.91578      484.91578      1757.5421      2242.4579      1757.5421      2242.4579      1757.5421      2242.4579      1.140247e+08   0.5            27560000       0              0              0              0
Averages over the last 251 of 501 rows, steps 55110000 to 55160000:
Temp Press PotEng Density KinEng TotEng Lx Ly Lz Xlo Xhi Ylo Yhi Zlo Zhi Volume Dt
276952 5389.19 -5.3412e+06 3.23081 824716 -4.51648e+06 484.916 484.916 484.916 1757.54 2242.46 1757.54 2242.46 1757.54 2242.46 1.14025e+08 0.5
Loop time of 8.90543 on 4 procs for 100000 steps with 1000 atoms

unfix 2

fix 3 all nvt temp 370000 370000 $(100.0*dt) #iso 1.0 1.0 $(1000.0*dt)
fix 3 all nvt temp 370000 370000 50

run 500000
Generated 0 of 1 mixed pair_coeff terms from geometric mixing rule
Step          Temp          Press          PotEng        Density         KinEng         TotEng           Lx             Ly             Lz            Xlo            Xhi            Ylo            Yhi            Zlo            Zhi           Volume           Dt            Time           CPU           T/CPU          S/CPU         CPULeft
55160000   372251.73      6829.9436     -5117876.6      3.2308106      1108502.1     -4009374.5      484.91578      484.91578      484.91578      1757.5421      2242.4579      1757.5421      2242.4579      1757.5421      2242.4579      1.140247e+08   0.5            27610000       0              0              0              0
Averages over the last 1251 of 2501 rows, steps 55410000 to 55660000:
Temp Press PotEng Density KinEng TotEng Lx Ly Lz Xlo Xhi Ylo Yhi Zlo Zhi Volume Dt
369928 6704.98 -5.10483e+06 3.23081 1.10158e+06 -4.00324e+06 484.916 484.916 484.916 1757.54 2242.46 1757.54 2242.46 1757.54 2242.46 1.14025e+08 0.5
Loop time of 44.9269 on 4 procs for 500000 steps with 1000 atoms

unfix 3

fix 4 all nvt temp 370000 300 100.0

run 100000
Generated 0 of 1 mixed pair_coeff terms from geometric mixing rule
Step          Temp          Press          PotEng        Density         KinEng         TotEng           Lx             Ly             Lz            Xlo            Xhi            Ylo            Yhi            Zlo            Zhi           Volume           Dt            Time           CPU           T/CPU          S/CPU         CPULeft
55660000   366582.3       6696.152      -5087996.7      3.2308106      1091619.5     -3996377.2      484.91578      484.91578      484.91578      1757.5421      2242.4579      1757.5421      2242.4579      1757.5421      2242.4579      1.140247e+08   0.5            27860000       0              0              0              0
Averages over the last 251 of 501 rows, steps 55710000 to 55760000:
Temp Press PotEng Density KinEng TotEng Lx Ly Lz Xlo Xhi Ylo Yhi Zlo Zhi Volume Dt
92941 1819.47 -5.80405e+06 3.23081 276762 -5.52729e+06 484.916 484.916 484.916 1757.54 2242.46 1757.54 2242.46 1757.54 2242.46 1.14025e+08 0.5
Loop time of 8.78805 on 4 procs for 100000 steps with 1000 atoms

unfix 4

fix 5 all npt temp 300 300 $(100.0*dt) iso 1.0 1.0 $(1000.0*dt)
fix 5 all npt temp 300 300 50 iso 1.0 1.0 $(1000.0*dt)
fix 5 all npt temp 300 300 50 iso 1.0 1.0 500

run 300000
Generated 0 of 1 mixed pair_coeff terms from geometric mixing rule
Step          Temp          Press          PotEng        Density         KinEng         TotEng           Lx             Ly             Lz            Xlo            Xhi            Ylo            Yhi            Zlo            Zhi           Volume           Dt            Time           CPU           T/CPU          S/CPU         CPULeft
55760000   1410.4031     -59.287586     -6030445.1      3.2308106      4199.9397     -6026245.1      484.91578      484.91578      484.91578      1757.5421      2242.4579      1757.5421      2242.4579      1757.5421      2242.4579      1.140247e+08   0.5            27910000       0              0              0              0
Averages over the last 751 of 1501 rows, steps 55910000 to 56060000:
Temp Press PotEng Density KinEng TotEng Lx Ly Lz Xlo Xhi Ylo Yhi Zlo Zhi Volume Dt
300.193 1.20355 -6.04124e+06 3.2328 893.923 -6.04035e+06 484.816 484.816 484.816 1757.59 2242.41 1757.59 2242.41 1757.59 2242.41 1.13955e+08 0.5
Loop time of 30.2852 on 4 procs for 300000 steps with 1000 atoms

# run_style
run_style verlet

# write restart
write_restart ./pgnpmf/1000/equpmf56.res
System init for write_restart ...
Generated 0 of 1 mixed pair_coeff terms from geometric mixing rule
