LAMMPS (23 Jun 2022 - Update 1)
# Read restart
read_restart ./pgnpmf/1000/equpmf35.res
Reading restart file ...
  restart file = 23 Jun 2022, LAMMPS = 23 Jun 2022
  restoring atom style atomic from restart
  orthogonal box = (1757.3337 1757.3337 1757.3337) to (2242.6663 2242.6663 2242.6663)
  restoring pair style table from restart
  1000 atoms
  read_restart CPU = 0.007 seconds

# Settings

pair_style table spline 9941

pair_coeff 1 1 ./pgnpmf/N20.txt DE_GNP 75.6
pair_coeff 2 2 ./pgnpmf/N100.txt DE_GNP 115.92
pair_coeff 1 2 ./pgnpmf/mixed_potential.txt DE_GNP 95.66

#Neigh_list Calc Frequency

neigh_modify delay 0 every 1 check yes

# Saving Frequency (50 frames)

variable ts_save equal 5000

# Dump
#dump_modify 1 first no sort id
dump 2 all cfg 50000 ./pgnpmf/1000/equilibration/trajectory/dumpgen.tens_*.cfg mass type xs ys zs fx fy fz
dump_modify 2 element N20 N100

# thermo_style
thermo_style custom step temp press pe density ke etotal lx ly lz xlo xhi ylo yhi zlo zhi vol dt time cpu tpcpu spcpu cpuremain

# run info
timestep 0.5
thermo 200

# fix

fix 1 all momentum 1000 linear 1 1 1 angular
variable T equal 300
fix 2 all nvt temp 300 370000 100.0

run 100000
Generated 0 of 1 mixed pair_coeff terms from geometric mixing rule
Unused restart file global fix info:
  fix style: npt, fix ID: 5
  update every 1 steps, delay 0 steps, check yes
Step          Temp          Press          PotEng        Density         KinEng         TotEng           Lx             Ly             Lz            Xlo            Xhi            Ylo            Yhi            Zlo            Zhi           Volume           Dt            Time           CPU           T/CPU          S/CPU         CPULeft
35060000   295.46164     -7.7956088     -6034470.4      3.2224943      879.83432     -6033590.6      485.33256      485.33256      485.33256      1757.3337      2242.6663      1757.3337      2242.6663      1757.3337      2242.6663      1.1431897e+08  0.5            17560000       0              0              0              0
Averages over the last 251 of 501 rows, steps 35110000 to 35160000:
Temp Press PotEng Density KinEng TotEng Lx Ly Lz Xlo Xhi Ylo Yhi Zlo Zhi Volume Dt
277430 5643.03 -5.27862e+06 3.22249 826139 -4.45248e+06 485.333 485.333 485.333 1757.33 2242.67 1757.33 2242.67 1757.33 2242.67 1.14319e+08 0.5
Loop time of 8.63683 on 4 procs for 100000 steps with 1000 atoms

unfix 2

fix 3 all nvt temp 370000 370000 $(100.0*dt) #iso 1.0 1.0 $(1000.0*dt)
fix 3 all nvt temp 370000 370000 50

run 500000
Generated 0 of 1 mixed pair_coeff terms from geometric mixing rule
Step          Temp          Press          PotEng        Density         KinEng         TotEng           Lx             Ly             Lz            Xlo            Xhi            Ylo            Yhi            Zlo            Zhi           Volume           Dt            Time           CPU           T/CPU          S/CPU         CPULeft
35160000   373834.46      7381.1124     -4990921.6      3.2224943      1113215.2     -3877706.4      485.33256      485.33256      485.33256      1757.3337      2242.6663      1757.3337      2242.6663      1757.3337      2242.6663      1.1431897e+08  0.5            17610000       0              0              0              0
Averages over the last 1251 of 2501 rows, steps 35410000 to 35660000:
Temp Press PotEng Density KinEng TotEng Lx Ly Lz Xlo Xhi Ylo Yhi Zlo Zhi Volume Dt
369810 6864.89 -5.05904e+06 3.22249 1.10123e+06 -3.95781e+06 485.333 485.333 485.333 1757.33 2242.67 1757.33 2242.67 1757.33 2242.67 1.14319e+08 0.5
Loop time of 44.2148 on 4 procs for 500000 steps with 1000 atoms

unfix 3

fix 4 all nvt temp 370000 300 100.0

run 100000
Generated 0 of 1 mixed pair_coeff terms from geometric mixing rule
Step          Temp          Press          PotEng        Density         KinEng         TotEng           Lx             Ly             Lz            Xlo            Xhi            Ylo            Yhi            Zlo            Zhi           Volume           Dt            Time           CPU           T/CPU          S/CPU         CPULeft
35660000   378116.03      7261.5782     -4997581.1      3.2224943      1125965       -3871616.1      485.33256      485.33256      485.33256      1757.3337      2242.6663      1757.3337      2242.6663      1757.3337      2242.6663      1.1431897e+08  0.5            17860000       0              0              0              0
Averages over the last 251 of 501 rows, steps 35710000 to 35760000:
Temp Press PotEng Density KinEng TotEng Lx Ly Lz Xlo Xhi Ylo Yhi Zlo Zhi Volume Dt
92915.6 1904.99 -5.78014e+06 3.22249 276687 -5.50345e+06 485.333 485.333 485.333 1757.33 2242.67 1757.33 2242.67 1757.33 2242.67 1.14319e+08 0.5
Loop time of 8.66215 on 4 procs for 100000 steps with 1000 atoms

unfix 4

fix 5 all npt temp 300 300 $(100.0*dt) iso 1.0 1.0 $(1000.0*dt)
fix 5 all npt temp 300 300 50 iso 1.0 1.0 $(1000.0*dt)
fix 5 all npt temp 300 300 50 iso 1.0 1.0 500

run 300000
Generated 0 of 1 mixed pair_coeff terms from geometric mixing rule
Step          Temp          Press          PotEng        Density         KinEng         TotEng           Lx             Ly             Lz            Xlo            Xhi            Ylo            Yhi            Zlo            Zhi           Volume           Dt            Time           CPU           T/CPU          S/CPU         CPULeft
35760000   1413.7546      9.6840176     -6017996.2      3.2224943      4209.9197     -6013786.3      485.33256      485.33256      485.33256      1757.3337      2242.6663      1757.3337      2242.6663      1757.3337      2242.6663      1.1431897e+08  0.5            17910000       0              0              0              0
Averages over the last 751 of 1501 rows, steps 35910000 to 36060000:
Temp Press PotEng Density KinEng TotEng Lx Ly Lz Xlo Xhi Ylo Yhi Zlo Zhi Volume Dt
299.944 1.21302 -6.03804e+06 3.22248 893.181 -6.03715e+06 485.333 485.333 485.333 1757.33 2242.67 1757.33 2242.67 1757.33 2242.67 1.1432e+08 0.5
Loop time of 31.2807 on 4 procs for 300000 steps with 1000 atoms

# run_style
run_style verlet

# write restart
write_restart ./pgnpmf/1000/equpmf36.res
System init for write_restart ...
Generated 0 of 1 mixed pair_coeff terms from geometric mixing rule
