LAMMPS (23 Jun 2022 - Update 1)
# Read restart
read_restart ./pgnpmf/1000/equpmf8.res
Reading restart file ...
  restart file = 23 Jun 2022, LAMMPS = 23 Jun 2022
  restoring atom style atomic from restart
  orthogonal box = (1722.448 1722.448 1722.448) to (2277.552 2277.552 2277.552)
  restoring pair style table from restart
  1000 atoms
  read_restart CPU = 0.010 seconds

# Settings

pair_style table spline 9941

pair_coeff 1 1 ./pgnpmf/N20.txt DE_GNP 75.6
pair_coeff 2 2 ./pgnpmf/N100.txt DE_GNP 115.92
pair_coeff 1 2 ./pgnpmf/mixed_potential.txt DE_GNP 95.66

#Neigh_list Calc Frequency

neigh_modify delay 0 every 1 check yes

# Saving Frequency (50 frames)

variable ts_save equal 5000

# Dump
#dump_modify 1 first no sort id
dump 2 all cfg 50000 ./pgnpmf/1000/equilibration/trajectory/dumpgen.tens_*.cfg mass type xs ys zs fx fy fz
dump_modify 2 element N20 N100

# thermo_style
thermo_style custom step temp press pe density ke etotal lx ly lz xlo xhi ylo yhi zlo zhi vol dt time cpu tpcpu spcpu cpuremain

# run info
timestep 0.5
thermo 200

# fix

fix 1 all momentum 1000 linear 1 1 1 angular
variable T equal 300
fix 2 all nvt temp 300 370000 100.0

run 100000
Generated 0 of 1 mixed pair_coeff terms from geometric mixing rule
Unused restart file global fix info:
  fix style: npt, fix ID: 5
  update every 1 steps, delay 0 steps, check yes
Step          Temp          Press          PotEng        Density         KinEng         TotEng           Lx             Ly             Lz            Xlo            Xhi            Ylo            Yhi            Zlo            Zhi           Volume           Dt            Time           CPU           T/CPU          S/CPU         CPULeft
8060000   316.99265     -4.8919238     -3945855.2      2.1537118      943.94997     -3944911.3      555.10391      555.10391      555.10391      1722.448       2277.552       1722.448       2277.552       1722.448       2277.552       1.7104991e+08  0.5            4060000        0              0              0              0
Averages over the last 251 of 501 rows, steps 8110000 to 8160000:
Temp Press PotEng Density KinEng TotEng Lx Ly Lz Xlo Xhi Ylo Yhi Zlo Zhi Volume Dt
277608 686.26 -3.69391e+06 2.15371 826668 -2.86724e+06 555.104 555.104 555.104 1722.45 2277.55 1722.45 2277.55 1722.45 2277.55 1.7105e+08 0.5
Loop time of 6.91366 on 4 procs for 100000 steps with 1000 atoms

unfix 2

fix 3 all nvt temp 370000 370000 $(100.0*dt) #iso 1.0 1.0 $(1000.0*dt)
fix 3 all nvt temp 370000 370000 50

run 500000
Generated 0 of 1 mixed pair_coeff terms from geometric mixing rule
Step          Temp          Press          PotEng        Density         KinEng         TotEng           Lx             Ly             Lz            Xlo            Xhi            Ylo            Yhi            Zlo            Zhi           Volume           Dt            Time           CPU           T/CPU          S/CPU         CPULeft
8160000   375993.34      1019.5351     -3524872.8      2.1537118      1119644       -2405228.8      555.10391      555.10391      555.10391      1722.448       2277.552       1722.448       2277.552       1722.448       2277.552       1.7104991e+08  0.5            4110000        0              0              0              0
Averages over the last 1251 of 2501 rows, steps 8410000 to 8660000:
Temp Press PotEng Density KinEng TotEng Lx Ly Lz Xlo Xhi Ylo Yhi Zlo Zhi Volume Dt
370151 1089.1 -3.44515e+06 2.15371 1.10225e+06 -2.3429e+06 555.104 555.104 555.104 1722.45 2277.55 1722.45 2277.55 1722.45 2277.55 1.7105e+08 0.5
Loop time of 35.4914 on 4 procs for 500000 steps with 1000 atoms

unfix 3

fix 4 all nvt temp 370000 300 100.0

run 100000
Generated 0 of 1 mixed pair_coeff terms from geometric mixing rule
Step          Temp          Press          PotEng        Density         KinEng         TotEng           Lx             Ly             Lz            Xlo            Xhi            Ylo            Yhi            Zlo            Zhi           Volume           Dt            Time           CPU           T/CPU          S/CPU         CPULeft
8660000   373613.16      945.36605     -3463383        2.1537118      1112556.2     -2350826.9      555.10391      555.10391      555.10391      1722.448       2277.552       1722.448       2277.552       1722.448       2277.552       1.7104991e+08  0.5            4360000        0              0              0              0
Averages over the last 251 of 501 rows, steps 8710000 to 8760000:
Temp Press PotEng Density KinEng TotEng Lx Ly Lz Xlo Xhi Ylo Yhi Zlo Zhi Volume Dt
92913.7 -478.218 -3.75939e+06 2.15371 276681 -3.48271e+06 555.104 555.104 555.104 1722.45 2277.55 1722.45 2277.55 1722.45 2277.55 1.7105e+08 0.5
Loop time of 6.97692 on 4 procs for 100000 steps with 1000 atoms

unfix 4

fix 5 all npt temp 300 300 $(100.0*dt) iso 1.0 1.0 $(1000.0*dt)
fix 5 all npt temp 300 300 50 iso 1.0 1.0 $(1000.0*dt)
fix 5 all npt temp 300 300 50 iso 1.0 1.0 500

run 300000
Generated 0 of 1 mixed pair_coeff terms from geometric mixing rule
Step          Temp          Press          PotEng        Density         KinEng         TotEng           Lx             Ly             Lz            Xlo            Xhi            Ylo            Yhi            Zlo            Zhi           Volume           Dt            Time           CPU           T/CPU          S/CPU         CPULeft
8760000   1344.5227     -1129.0668     -3897444.5      2.1537118      4003.759      -3893440.7      555.10391      555.10391      555.10391      1722.448       2277.552       1722.448       2277.552       1722.448       2277.552       1.7104991e+08  0.5            4410000        0              0              0              0
Averages over the last 751 of 1501 rows, steps 8910000 to 9060000:
Temp Press PotEng Density KinEng TotEng Lx Ly Lz Xlo Xhi Ylo Yhi Zlo Zhi Volume Dt
314.486 1.31949 -4.64662e+06 2.54968 936.484 -4.64568e+06 524.749 524.749 524.749 1737.63 2262.37 1737.63 2262.37 1737.63 2262.37 1.445e+08 0.5
Loop time of 25.9387 on 4 procs for 300000 steps with 1000 atoms

# run_style
run_style verlet

# write restart
write_restart ./pgnpmf/1000/equpmf9.res
System init for write_restart ...
Generated 0 of 1 mixed pair_coeff terms from geometric mixing rule
