LAMMPS (23 Jun 2022 - Update 1)
# Read restart
read_restart ./pgnpmf/1000/equpmf29.res
Reading restart file ...
  restart file = 23 Jun 2022, LAMMPS = 23 Jun 2022
  restoring atom style atomic from restart
  orthogonal box = (1757.3289 1757.3289 1757.3289) to (2242.6711 2242.6711 2242.6711)
  restoring pair style table from restart
  1000 atoms
  read_restart CPU = 0.007 seconds

# Settings

pair_style table spline 9941

pair_coeff 1 1 ./pgnpmf/N20.txt DE_GNP 75.6
pair_coeff 2 2 ./pgnpmf/N100.txt DE_GNP 115.92
pair_coeff 1 2 ./pgnpmf/mixed_potential.txt DE_GNP 95.66

#Neigh_list Calc Frequency

neigh_modify delay 0 every 1 check yes

# Saving Frequency (50 frames)

variable ts_save equal 5000

# Dump
#dump_modify 1 first no sort id
dump 2 all cfg 50000 ./pgnpmf/1000/equilibration/trajectory/dumpgen.tens_*.cfg mass type xs ys zs fx fy fz
dump_modify 2 element N20 N100

# thermo_style
thermo_style custom step temp press pe density ke etotal lx ly lz xlo xhi ylo yhi zlo zhi vol dt time cpu tpcpu spcpu cpuremain

# run info
timestep 0.5
thermo 200

# fix

fix 1 all momentum 1000 linear 1 1 1 angular
variable T equal 300
fix 2 all nvt temp 300 370000 100.0

run 100000
Generated 0 of 1 mixed pair_coeff terms from geometric mixing rule
Unused restart file global fix info:
  fix style: npt, fix ID: 5
  update every 1 steps, delay 0 steps, check yes
Step          Temp          Press          PotEng        Density         KinEng         TotEng           Lx             Ly             Lz            Xlo            Xhi            Ylo            Yhi            Zlo            Zhi           Volume           Dt            Time           CPU           T/CPU          S/CPU         CPULeft
29060000   304.85374      2.0562917     -6051833.1      3.2223005      907.80237     -6050925.3      485.34229      485.34229      485.34229      1757.3289      2242.6711      1757.3289      2242.6711      1757.3289      2242.6711      1.1432584e+08  0.5            14560000       0              0              0              0
Averages over the last 251 of 501 rows, steps 29110000 to 29160000:
Temp Press PotEng Density KinEng TotEng Lx Ly Lz Xlo Xhi Ylo Yhi Zlo Zhi Volume Dt
277326 5482.86 -5.30437e+06 3.2223 825829 -4.47854e+06 485.342 485.342 485.342 1757.33 2242.67 1757.33 2242.67 1757.33 2242.67 1.14326e+08 0.5
Loop time of 8.33968 on 4 procs for 100000 steps with 1000 atoms

unfix 2

fix 3 all nvt temp 370000 370000 $(100.0*dt) #iso 1.0 1.0 $(1000.0*dt)
fix 3 all nvt temp 370000 370000 50

run 500000
Generated 0 of 1 mixed pair_coeff terms from geometric mixing rule
Step          Temp          Press          PotEng        Density         KinEng         TotEng           Lx             Ly             Lz            Xlo            Xhi            Ylo            Yhi            Zlo            Zhi           Volume           Dt            Time           CPU           T/CPU          S/CPU         CPULeft
29160000   373929.38      7178.1756     -5017553.3      3.2223005      1113497.8     -3904055.5      485.34229      485.34229      485.34229      1757.3289      2242.6711      1757.3289      2242.6711      1757.3289      2242.6711      1.1432584e+08  0.5            14610000       0              0              0              0
Averages over the last 1251 of 2501 rows, steps 29410000 to 29660000:
Temp Press PotEng Density KinEng TotEng Lx Ly Lz Xlo Xhi Ylo Yhi Zlo Zhi Volume Dt
369956 6823.06 -5.06351e+06 3.2223 1.10167e+06 -3.96184e+06 485.342 485.342 485.342 1757.33 2242.67 1757.33 2242.67 1757.33 2242.67 1.14326e+08 0.5
Loop time of 42.4975 on 4 procs for 500000 steps with 1000 atoms

unfix 3

fix 4 all nvt temp 370000 300 100.0

run 100000
Generated 0 of 1 mixed pair_coeff terms from geometric mixing rule
Step          Temp          Press          PotEng        Density         KinEng         TotEng           Lx             Ly             Lz            Xlo            Xhi            Ylo            Yhi            Zlo            Zhi           Volume           Dt            Time           CPU           T/CPU          S/CPU         CPULeft
29660000   360246.46      6859.5507     -5047785.8      3.2223005      1072752.4     -3975033.4      485.34229      485.34229      485.34229      1757.3289      2242.6711      1757.3289      2242.6711      1757.3289      2242.6711      1.1432584e+08  0.5            14860000       0              0              0              0
Averages over the last 251 of 501 rows, steps 29710000 to 29760000:
Temp Press PotEng Density KinEng TotEng Lx Ly Lz Xlo Xhi Ylo Yhi Zlo Zhi Volume Dt
93231.2 1902.82 -5.76934e+06 3.2223 277627 -5.49172e+06 485.342 485.342 485.342 1757.33 2242.67 1757.33 2242.67 1757.33 2242.67 1.14326e+08 0.5
Loop time of 8.37776 on 4 procs for 100000 steps with 1000 atoms

unfix 4

fix 5 all npt temp 300 300 $(100.0*dt) iso 1.0 1.0 $(1000.0*dt)
fix 5 all npt temp 300 300 50 iso 1.0 1.0 $(1000.0*dt)
fix 5 all npt temp 300 300 50 iso 1.0 1.0 500

run 300000
Generated 0 of 1 mixed pair_coeff terms from geometric mixing rule
Step          Temp          Press          PotEng        Density         KinEng         TotEng           Lx             Ly             Lz            Xlo            Xhi            Ylo            Yhi            Zlo            Zhi           Volume           Dt            Time           CPU           T/CPU          S/CPU         CPULeft
29760000   1402.618      -2.6268483     -5996761.3      3.2223005      4176.7568     -5992584.5      485.34229      485.34229      485.34229      1757.3289      2242.6711      1757.3289      2242.6711      1757.3289      2242.6711      1.1432584e+08  0.5            14910000       0              0              0              0
Averages over the last 751 of 1501 rows, steps 29910000 to 30060000:
Temp Press PotEng Density KinEng TotEng Lx Ly Lz Xlo Xhi Ylo Yhi Zlo Zhi Volume Dt
299.954 1.18102 -5.98042e+06 3.22047 893.212 -5.97953e+06 485.434 485.434 485.434 1757.28 2242.72 1757.28 2242.72 1757.28 2242.72 1.14391e+08 0.5
Loop time of 28.7011 on 4 procs for 300000 steps with 1000 atoms

# run_style
run_style verlet

# write restart
write_restart ./pgnpmf/1000/equpmf30.res
System init for write_restart ...
Generated 0 of 1 mixed pair_coeff terms from geometric mixing rule
