LAMMPS (23 Jun 2022 - Update 1)
# Read restart
read_restart ./pgnpmf/1000/equpmf40.res
Reading restart file ...
  restart file = 23 Jun 2022, LAMMPS = 23 Jun 2022
  restoring atom style atomic from restart
  orthogonal box = (1757.7024 1757.7024 1757.7024) to (2242.2976 2242.2976 2242.2976)
  restoring pair style table from restart
  1000 atoms
  read_restart CPU = 0.009 seconds

# Settings

pair_style table spline 9941

pair_coeff 1 1 ./pgnpmf/N20.txt DE_GNP 75.6
pair_coeff 2 2 ./pgnpmf/N100.txt DE_GNP 115.92
pair_coeff 1 2 ./pgnpmf/mixed_potential.txt DE_GNP 95.66

#Neigh_list Calc Frequency

neigh_modify delay 0 every 1 check yes

# Saving Frequency (50 frames)

variable ts_save equal 5000

# Dump
#dump_modify 1 first no sort id
dump 2 all cfg 50000 ./pgnpmf/1000/equilibration/trajectory/dumpgen.tens_*.cfg mass type xs ys zs fx fy fz
dump_modify 2 element N20 N100

# thermo_style
thermo_style custom step temp press pe density ke etotal lx ly lz xlo xhi ylo yhi zlo zhi vol dt time cpu tpcpu spcpu cpuremain

# run info
timestep 0.5
thermo 200

# fix

fix 1 all momentum 1000 linear 1 1 1 angular
variable T equal 300
fix 2 all nvt temp 300 370000 100.0

run 100000
Generated 0 of 1 mixed pair_coeff terms from geometric mixing rule
Unused restart file global fix info:
  fix style: npt, fix ID: 5
  update every 1 steps, delay 0 steps, check yes
Step          Temp          Press          PotEng        Density         KinEng         TotEng           Lx             Ly             Lz            Xlo            Xhi            Ylo            Yhi            Zlo            Zhi           Volume           Dt            Time           CPU           T/CPU          S/CPU         CPULeft
40060000   300.80116     -5.6522312     -6002637.7      3.2372255      895.73449     -6001742        484.59526      484.59526      484.59526      1757.7024      2242.2976      1757.7024      2242.2976      1757.7024      2242.2976      1.1379875e+08  0.5            20060000       0              0              0              0
Averages over the last 251 of 501 rows, steps 40110000 to 40160000:
Temp Press PotEng Density KinEng TotEng Lx Ly Lz Xlo Xhi Ylo Yhi Zlo Zhi Volume Dt
277125 5343.75 -5.34906e+06 3.23723 825232 -4.52382e+06 484.595 484.595 484.595 1757.7 2242.3 1757.7 2242.3 1757.7 2242.3 1.13799e+08 0.5
Loop time of 9.93854 on 4 procs for 100000 steps with 1000 atoms

unfix 2

fix 3 all nvt temp 370000 370000 $(100.0*dt) #iso 1.0 1.0 $(1000.0*dt)
fix 3 all nvt temp 370000 370000 50

run 500000
Generated 0 of 1 mixed pair_coeff terms from geometric mixing rule
Step          Temp          Press          PotEng        Density         KinEng         TotEng           Lx             Ly             Lz            Xlo            Xhi            Ylo            Yhi            Zlo            Zhi           Volume           Dt            Time           CPU           T/CPU          S/CPU         CPULeft
40160000   354634.5       6778.8022     -5115295.8      3.2372255      1056041       -4059254.8      484.59526      484.59526      484.59526      1757.7024      2242.2976      1757.7024      2242.2976      1757.7024      2242.2976      1.1379875e+08  0.5            20110000       0              0              0              0
Averages over the last 1251 of 2501 rows, steps 40410000 to 40660000:
Temp Press PotEng Density KinEng TotEng Lx Ly Lz Xlo Xhi Ylo Yhi Zlo Zhi Volume Dt
370025 6826.7 -5.0976e+06 3.23723 1.10187e+06 -3.99573e+06 484.595 484.595 484.595 1757.7 2242.3 1757.7 2242.3 1757.7 2242.3 1.13799e+08 0.5
Loop time of 44.8458 on 4 procs for 500000 steps with 1000 atoms

unfix 3

fix 4 all nvt temp 370000 300 100.0

run 100000
Generated 0 of 1 mixed pair_coeff terms from geometric mixing rule
Step          Temp          Press          PotEng        Density         KinEng         TotEng           Lx             Ly             Lz            Xlo            Xhi            Ylo            Yhi            Zlo            Zhi           Volume           Dt            Time           CPU           T/CPU          S/CPU         CPULeft
40660000   365370.95      6763.0298     -5101145.7      3.2372255      1088012.3     -4013133.4      484.59526      484.59526      484.59526      1757.7024      2242.2976      1757.7024      2242.2976      1757.7024      2242.2976      1.1379875e+08  0.5            20360000       0              0              0              0
Averages over the last 251 of 501 rows, steps 40710000 to 40760000:
Temp Press PotEng Density KinEng TotEng Lx Ly Lz Xlo Xhi Ylo Yhi Zlo Zhi Volume Dt
93048 1917.29 -5.79003e+06 3.23723 277081 -5.51295e+06 484.595 484.595 484.595 1757.7 2242.3 1757.7 2242.3 1757.7 2242.3 1.13799e+08 0.5
Loop time of 8.62183 on 4 procs for 100000 steps with 1000 atoms

unfix 4

fix 5 all npt temp 300 300 $(100.0*dt) iso 1.0 1.0 $(1000.0*dt)
fix 5 all npt temp 300 300 50 iso 1.0 1.0 $(1000.0*dt)
fix 5 all npt temp 300 300 50 iso 1.0 1.0 500

run 300000
Generated 0 of 1 mixed pair_coeff terms from geometric mixing rule
Step          Temp          Press          PotEng        Density         KinEng         TotEng           Lx             Ly             Lz            Xlo            Xhi            Ylo            Yhi            Zlo            Zhi           Volume           Dt            Time           CPU           T/CPU          S/CPU         CPULeft
40760000   1411.219       74.724406     -6003452.3      3.2372255      4202.3692     -5999249.9      484.59526      484.59526      484.59526      1757.7024      2242.2976      1757.7024      2242.2976      1757.7024      2242.2976      1.1379875e+08  0.5            20410000       0              0              0              0
Averages over the last 751 of 1501 rows, steps 40910000 to 41060000:
Temp Press PotEng Density KinEng TotEng Lx Ly Lz Xlo Xhi Ylo Yhi Zlo Zhi Volume Dt
299.941 1.17536 -5.99766e+06 3.23645 893.174 -5.99677e+06 484.634 484.634 484.634 1757.68 2242.32 1757.68 2242.32 1757.68 2242.32 1.13826e+08 0.5
Loop time of 29.1527 on 4 procs for 300000 steps with 1000 atoms

# run_style
run_style verlet

# write restart
write_restart ./pgnpmf/1000/equpmf41.res
System init for write_restart ...
Generated 0 of 1 mixed pair_coeff terms from geometric mixing rule
