LAMMPS (23 Jun 2022 - Update 1)
# Read restart
read_restart ./pgnpmf/1000/equpmf22.res
Reading restart file ...
  restart file = 23 Jun 2022, LAMMPS = 23 Jun 2022
  restoring atom style atomic from restart
  orthogonal box = (1756.3904 1756.3904 1756.3904) to (2243.6096 2243.6096 2243.6096)
  restoring pair style table from restart
  1000 atoms
  read_restart CPU = 0.005 seconds

# Settings

pair_style table spline 9941

pair_coeff 1 1 ./pgnpmf/N20.txt DE_GNP 75.6
pair_coeff 2 2 ./pgnpmf/N100.txt DE_GNP 115.92
pair_coeff 1 2 ./pgnpmf/mixed_potential.txt DE_GNP 95.66

#Neigh_list Calc Frequency

neigh_modify delay 0 every 1 check yes

# Saving Frequency (50 frames)

variable ts_save equal 5000

# Dump
#dump_modify 1 first no sort id
dump 2 all cfg 50000 ./pgnpmf/1000/equilibration/trajectory/dumpgen.tens_*.cfg mass type xs ys zs fx fy fz
dump_modify 2 element N20 N100

# thermo_style
thermo_style custom step temp press pe density ke etotal lx ly lz xlo xhi ylo yhi zlo zhi vol dt time cpu tpcpu spcpu cpuremain

# run info
timestep 0.5
thermo 200

# fix

fix 1 all momentum 1000 linear 1 1 1 angular
variable T equal 300
fix 2 all nvt temp 300 370000 100.0

run 100000
Generated 0 of 1 mixed pair_coeff terms from geometric mixing rule
Unused restart file global fix info:
  fix style: npt, fix ID: 5
  update every 1 steps, delay 0 steps, check yes
Step          Temp          Press          PotEng        Density         KinEng         TotEng           Lx             Ly             Lz            Xlo            Xhi            Ylo            Yhi            Zlo            Zhi           Volume           Dt            Time           CPU           T/CPU          S/CPU         CPULeft
22060000   311.4188       6.8141254     -5899677.8      3.1852025      927.35202     -5898750.5      487.21928      487.21928      487.21928      1756.3904      2243.6096      1756.3904      2243.6096      1756.3904      2243.6096      1.1565739e+08  0.5            11060000       0              0              0              0
Averages over the last 251 of 501 rows, steps 22110000 to 22160000:
Temp Press PotEng Density KinEng TotEng Lx Ly Lz Xlo Xhi Ylo Yhi Zlo Zhi Volume Dt
277459 5312.85 -5.22219e+06 3.1852 826226 -4.39596e+06 487.219 487.219 487.219 1756.39 2243.61 1756.39 2243.61 1756.39 2243.61 1.15657e+08 0.5
Loop time of 8.32397 on 4 procs for 100000 steps with 1000 atoms

unfix 2

fix 3 all nvt temp 370000 370000 $(100.0*dt) #iso 1.0 1.0 $(1000.0*dt)
fix 3 all nvt temp 370000 370000 50

run 500000
Generated 0 of 1 mixed pair_coeff terms from geometric mixing rule
Step          Temp          Press          PotEng        Density         KinEng         TotEng           Lx             Ly             Lz            Xlo            Xhi            Ylo            Yhi            Zlo            Zhi           Volume           Dt            Time           CPU           T/CPU          S/CPU         CPULeft
22160000   372678.52      6810.9307     -4970907.9      3.1852025      1109773       -3861134.9      487.21928      487.21928      487.21928      1756.3904      2243.6096      1756.3904      2243.6096      1756.3904      2243.6096      1.1565739e+08  0.5            11110000       0              0              0              0
Averages over the last 1251 of 2501 rows, steps 22410000 to 22660000:
Temp Press PotEng Density KinEng TotEng Lx Ly Lz Xlo Xhi Ylo Yhi Zlo Zhi Volume Dt
369965 6680.45 -4.97134e+06 3.1852 1.10169e+06 -3.86965e+06 487.219 487.219 487.219 1756.39 2243.61 1756.39 2243.61 1756.39 2243.61 1.15657e+08 0.5
Loop time of 42.1065 on 4 procs for 500000 steps with 1000 atoms

unfix 3

fix 4 all nvt temp 370000 300 100.0

run 100000
Generated 0 of 1 mixed pair_coeff terms from geometric mixing rule
Step          Temp          Press          PotEng        Density         KinEng         TotEng           Lx             Ly             Lz            Xlo            Xhi            Ylo            Yhi            Zlo            Zhi           Volume           Dt            Time           CPU           T/CPU          S/CPU         CPULeft
22660000   367856.9       6752.3769     -4956426.1      3.1852025      1095415       -3861011.1      487.21928      487.21928      487.21928      1756.3904      2243.6096      1756.3904      2243.6096      1756.3904      2243.6096      1.1565739e+08  0.5            11360000       0              0              0              0
Averages over the last 251 of 501 rows, steps 22710000 to 22760000:
Temp Press PotEng Density KinEng TotEng Lx Ly Lz Xlo Xhi Ylo Yhi Zlo Zhi Volume Dt
92987.4 1946.45 -5.66679e+06 3.1852 276901 -5.38989e+06 487.219 487.219 487.219 1756.39 2243.61 1756.39 2243.61 1756.39 2243.61 1.15657e+08 0.5
Loop time of 8.24312 on 4 procs for 100000 steps with 1000 atoms

unfix 4

fix 5 all npt temp 300 300 $(100.0*dt) iso 1.0 1.0 $(1000.0*dt)
fix 5 all npt temp 300 300 50 iso 1.0 1.0 $(1000.0*dt)
fix 5 all npt temp 300 300 50 iso 1.0 1.0 500

run 300000
Generated 0 of 1 mixed pair_coeff terms from geometric mixing rule
Step          Temp          Press          PotEng        Density         KinEng         TotEng           Lx             Ly             Lz            Xlo            Xhi            Ylo            Yhi            Zlo            Zhi           Volume           Dt            Time           CPU           T/CPU          S/CPU         CPULeft
22760000   1412.5643      134.68899     -5882620.8      3.1852025      4206.3753     -5878414.4      487.21928      487.21928      487.21928      1756.3904      2243.6096      1756.3904      2243.6096      1756.3904      2243.6096      1.1565739e+08  0.5            11410000       0              0              0              0
Averages over the last 751 of 1501 rows, steps 22910000 to 23060000:
Temp Press PotEng Density KinEng TotEng Lx Ly Lz Xlo Xhi Ylo Yhi Zlo Zhi Volume Dt
300.189 1.29863 -5.90813e+06 3.17872 893.913 -5.90723e+06 487.55 487.55 487.55 1756.22 2243.78 1756.22 2243.78 1756.22 2243.78 1.15893e+08 0.5
Loop time of 28.5435 on 4 procs for 300000 steps with 1000 atoms

# run_style
run_style verlet

# write restart
write_restart ./pgnpmf/1000/equpmf23.res
System init for write_restart ...
Generated 0 of 1 mixed pair_coeff terms from geometric mixing rule
