LAMMPS (23 Jun 2022 - Update 1)
# Read restart
read_restart ./pgnpmf/1000/equpmf2.res
Reading restart file ...
  restart file = 23 Jun 2022, LAMMPS = 23 Jun 2022
  restoring atom style atomic from restart
  orthogonal box = (1308.7177 1308.7177 1308.7177) to (2691.2823 2691.2823 2691.2823)
  restoring pair style table from restart
  1000 atoms
  read_restart CPU = 0.005 seconds

# Settings

pair_style table spline 9941

pair_coeff 1 1 ./pgnpmf/N20.txt DE_GNP 75.6
pair_coeff 2 2 ./pgnpmf/N100.txt DE_GNP 115.92
pair_coeff 1 2 ./pgnpmf/mixed_potential.txt DE_GNP 95.66

#Neigh_list Calc Frequency

neigh_modify delay 0 every 1 check yes

# Saving Frequency (50 frames)

variable ts_save equal 5000

# Dump
#dump_modify 1 first no sort id
dump 2 all cfg 50000 ./pgnpmf/1000/equilibration/trajectory/dumpgen.tens_*.cfg mass type xs ys zs fx fy fz
dump_modify 2 element N20 N100

# thermo_style
thermo_style custom step temp press pe density ke etotal lx ly lz xlo xhi ylo yhi zlo zhi vol dt time cpu tpcpu spcpu cpuremain

# run info
timestep 0.5
thermo 200

# fix

fix 1 all momentum 1000 linear 1 1 1 angular
variable T equal 300
fix 2 all nvt temp 300 370000 100.0

run 100000
Generated 0 of 1 mixed pair_coeff terms from geometric mixing rule
Unused restart file global fix info:
  fix style: npt, fix ID: 5
  update every 1 steps, delay 0 steps, check yes
Step          Temp          Press          PotEng        Density         KinEng         TotEng           Lx             Ly             Lz            Xlo            Xhi            Ylo            Yhi            Zlo            Zhi           Volume           Dt            Time           CPU           T/CPU          S/CPU         CPULeft
2060000   311.16221      0.89195982    -439407.18      0.13939722     926.58792     -438480.59      1382.5646      1382.5646      1382.5646      1308.7177      2691.2823      1308.7177      2691.2823      1308.7177      2691.2823      2.6427515e+09  0.5            1060000        0              0              0              0
Averages over the last 251 of 501 rows, steps 2110000 to 2160000:
Temp Press PotEng Density KinEng TotEng Lx Ly Lz Xlo Xhi Ylo Yhi Zlo Zhi Volume Dt
277506 14.9256 -274049 0.139397 826366 552317 1382.56 1382.56 1382.56 1308.72 2691.28 1308.72 2691.28 1308.72 2691.28 2.64275e+09 0.5
Loop time of 3.35102 on 4 procs for 100000 steps with 1000 atoms

unfix 2

fix 3 all nvt temp 370000 370000 $(100.0*dt) #iso 1.0 1.0 $(1000.0*dt)
fix 3 all nvt temp 370000 370000 50

run 500000
Generated 0 of 1 mixed pair_coeff terms from geometric mixing rule
Step          Temp          Press          PotEng        Density         KinEng         TotEng           Lx             Ly             Lz            Xlo            Xhi            Ylo            Yhi            Zlo            Zhi           Volume           Dt            Time           CPU           T/CPU          S/CPU         CPULeft
2160000   367703.76      22.410754     -257265.47      0.13939722     1094959        837693.53      1382.5646      1382.5646      1382.5646      1308.7177      2691.2823      1308.7177      2691.2823      1308.7177      2691.2823      2.6427515e+09  0.5            1110000        0              0              0              0
Averages over the last 1251 of 2501 rows, steps 2410000 to 2660000:
Temp Press PotEng Density KinEng TotEng Lx Ly Lz Xlo Xhi Ylo Yhi Zlo Zhi Volume Dt
370012 18.9603 -258087 0.139397 1.10183e+06 843744 1382.56 1382.56 1382.56 1308.72 2691.28 1308.72 2691.28 1308.72 2691.28 2.64275e+09 0.5
Loop time of 14.6745 on 4 procs for 500000 steps with 1000 atoms

unfix 3

fix 4 all nvt temp 370000 300 100.0

run 100000
Generated 0 of 1 mixed pair_coeff terms from geometric mixing rule
Step          Temp          Press          PotEng        Density         KinEng         TotEng           Lx             Ly             Lz            Xlo            Xhi            Ylo            Yhi            Zlo            Zhi           Volume           Dt            Time           CPU           T/CPU          S/CPU         CPULeft
2660000   384797.26      19.332353     -240036.96      0.13939722     1145860.5      905823.58      1382.5646      1382.5646      1382.5646      1308.7177      2691.2823      1308.7177      2691.2823      1308.7177      2691.2823      2.6427515e+09  0.5            1360000        0              0              0              0
Averages over the last 251 of 501 rows, steps 2710000 to 2760000:
Temp Press PotEng Density KinEng TotEng Lx Ly Lz Xlo Xhi Ylo Yhi Zlo Zhi Volume Dt
93017.1 2.5999 -289565 0.139397 276989 -12575.8 1382.56 1382.56 1382.56 1308.72 2691.28 1308.72 2691.28 1308.72 2691.28 2.64275e+09 0.5
Loop time of 2.45394 on 4 procs for 100000 steps with 1000 atoms

unfix 4

fix 5 all npt temp 300 300 $(100.0*dt) iso 1.0 1.0 $(1000.0*dt)
fix 5 all npt temp 300 300 50 iso 1.0 1.0 $(1000.0*dt)
fix 5 all npt temp 300 300 50 iso 1.0 1.0 500

run 300000
Generated 0 of 1 mixed pair_coeff terms from geometric mixing rule
Step          Temp          Press          PotEng        Density         KinEng         TotEng           Lx             Ly             Lz            Xlo            Xhi            Ylo            Yhi            Zlo            Zhi           Volume           Dt            Time           CPU           T/CPU          S/CPU         CPULeft
2760000   1198.2305     -2.9637293     -333605.66      0.13939722     3568.1258     -330037.54      1382.5646      1382.5646      1382.5646      1308.7177      2691.2823      1308.7177      2691.2823      1308.7177      2691.2823      2.6427515e+09  0.5            1410000        0              0              0              0
Averages over the last 751 of 1501 rows, steps 2910000 to 3060000:
Temp Press PotEng Density KinEng TotEng Lx Ly Lz Xlo Xhi Ylo Yhi Zlo Zhi Volume Dt
309.08 1.0007 -550850 0.248566 920.387 -549929 1142 1142 1142 1429 2571 1429 2571 1429 2571 1.49303e+09 0.5
Loop time of 11.5301 on 4 procs for 300000 steps with 1000 atoms

# run_style
run_style verlet

# write restart
write_restart ./pgnpmf/1000/equpmf3.res
System init for write_restart ...
Generated 0 of 1 mixed pair_coeff terms from geometric mixing rule
