LAMMPS (23 Jun 2022 - Update 1)
# Read restart
read_restart ./pgnpmf/1000/equpmf51.res
Reading restart file ...
  restart file = 23 Jun 2022, LAMMPS = 23 Jun 2022
  restoring atom style atomic from restart
  orthogonal box = (1757.6034 1757.6034 1757.6034) to (2242.3966 2242.3966 2242.3966)
  restoring pair style table from restart
  1000 atoms
  read_restart CPU = 0.006 seconds

# Settings

pair_style table spline 9941

pair_coeff 1 1 ./pgnpmf/N20.txt DE_GNP 75.6
pair_coeff 2 2 ./pgnpmf/N100.txt DE_GNP 115.92
pair_coeff 1 2 ./pgnpmf/mixed_potential.txt DE_GNP 95.66

#Neigh_list Calc Frequency

neigh_modify delay 0 every 1 check yes

# Saving Frequency (50 frames)

variable ts_save equal 5000

# Dump
#dump_modify 1 first no sort id
dump 2 all cfg 50000 ./pgnpmf/1000/equilibration/trajectory/dumpgen.tens_*.cfg mass type xs ys zs fx fy fz
dump_modify 2 element N20 N100

# thermo_style
thermo_style custom step temp press pe density ke etotal lx ly lz xlo xhi ylo yhi zlo zhi vol dt time cpu tpcpu spcpu cpuremain

# run info
timestep 0.5
thermo 200

# fix

fix 1 all momentum 1000 linear 1 1 1 angular
variable T equal 300
fix 2 all nvt temp 300 370000 100.0

run 100000
Generated 0 of 1 mixed pair_coeff terms from geometric mixing rule
Unused restart file global fix info:
  fix style: npt, fix ID: 5
  update every 1 steps, delay 0 steps, check yes
Step          Temp          Press          PotEng        Density         KinEng         TotEng           Lx             Ly             Lz            Xlo            Xhi            Ylo            Yhi            Zlo            Zhi           Volume           Dt            Time           CPU           T/CPU          S/CPU         CPULeft
51060000   288.86536     -15.887247     -6032089.9      3.2332636      860.19172     -6031229.7      484.79312      484.79312      484.79312      1757.6034      2242.3966      1757.6034      2242.3966      1757.6034      2242.3966      1.1393819e+08  0.5            25560000       0              0              0              0
Averages over the last 251 of 501 rows, steps 51110000 to 51160000:
Temp Press PotEng Density KinEng TotEng Lx Ly Lz Xlo Xhi Ylo Yhi Zlo Zhi Volume Dt
277208 5441.38 -5.36102e+06 3.23326 825479 -4.53554e+06 484.793 484.793 484.793 1757.6 2242.4 1757.6 2242.4 1757.6 2242.4 1.13938e+08 0.5
Loop time of 8.78931 on 4 procs for 100000 steps with 1000 atoms

unfix 2

fix 3 all nvt temp 370000 370000 $(100.0*dt) #iso 1.0 1.0 $(1000.0*dt)
fix 3 all nvt temp 370000 370000 50

run 500000
Generated 0 of 1 mixed pair_coeff terms from geometric mixing rule
Step          Temp          Press          PotEng        Density         KinEng         TotEng           Lx             Ly             Lz            Xlo            Xhi            Ylo            Yhi            Zlo            Zhi           Volume           Dt            Time           CPU           T/CPU          S/CPU         CPULeft
51160000   377172.76      6563.9483     -5141176.1      3.2332636      1123156.1     -4018020        484.79312      484.79312      484.79312      1757.6034      2242.3966      1757.6034      2242.3966      1757.6034      2242.3966      1.1393819e+08  0.5            25610000       0              0              0              0
Averages over the last 1251 of 2501 rows, steps 51410000 to 51660000:
Temp Press PotEng Density KinEng TotEng Lx Ly Lz Xlo Xhi Ylo Yhi Zlo Zhi Volume Dt
369920 6766.05 -5.09574e+06 3.23326 1.10156e+06 -3.99418e+06 484.793 484.793 484.793 1757.6 2242.4 1757.6 2242.4 1757.6 2242.4 1.13938e+08 0.5
Loop time of 44.7572 on 4 procs for 500000 steps with 1000 atoms

unfix 3

fix 4 all nvt temp 370000 300 100.0

run 100000
Generated 0 of 1 mixed pair_coeff terms from geometric mixing rule
Step          Temp          Press          PotEng        Density         KinEng         TotEng           Lx             Ly             Lz            Xlo            Xhi            Ylo            Yhi            Zlo            Zhi           Volume           Dt            Time           CPU           T/CPU          S/CPU         CPULeft
51660000   372974.22      6805.3487     -5094905.1      3.2332636      1110653.5     -3984251.6      484.79312      484.79312      484.79312      1757.6034      2242.3966      1757.6034      2242.3966      1757.6034      2242.3966      1.1393819e+08  0.5            25860000       0              0              0              0
Averages over the last 251 of 501 rows, steps 51710000 to 51760000:
Temp Press PotEng Density KinEng TotEng Lx Ly Lz Xlo Xhi Ylo Yhi Zlo Zhi Volume Dt
93164.6 1851.65 -5.79613e+06 3.23326 277428 -5.51871e+06 484.793 484.793 484.793 1757.6 2242.4 1757.6 2242.4 1757.6 2242.4 1.13938e+08 0.5
Loop time of 8.73397 on 4 procs for 100000 steps with 1000 atoms

unfix 4

fix 5 all npt temp 300 300 $(100.0*dt) iso 1.0 1.0 $(1000.0*dt)
fix 5 all npt temp 300 300 50 iso 1.0 1.0 $(1000.0*dt)
fix 5 all npt temp 300 300 50 iso 1.0 1.0 500

run 300000
Generated 0 of 1 mixed pair_coeff terms from geometric mixing rule
Step          Temp          Press          PotEng        Density         KinEng         TotEng           Lx             Ly             Lz            Xlo            Xhi            Ylo            Yhi            Zlo            Zhi           Volume           Dt            Time           CPU           T/CPU          S/CPU         CPULeft
51760000   1411.1582     -20.731794     -6015998.7      3.2332636      4202.1882     -6011796.5      484.79312      484.79312      484.79312      1757.6034      2242.3966      1757.6034      2242.3966      1757.6034      2242.3966      1.1393819e+08  0.5            25910000       0              0              0              0
Averages over the last 751 of 1501 rows, steps 51910000 to 52060000:
Temp Press PotEng Density KinEng TotEng Lx Ly Lz Xlo Xhi Ylo Yhi Zlo Zhi Volume Dt
299.953 1.01998 -6.00668e+06 3.23638 893.208 -6.00579e+06 484.637 484.637 484.637 1757.68 2242.32 1757.68 2242.32 1757.68 2242.32 1.13828e+08 0.5
Loop time of 30.0757 on 4 procs for 300000 steps with 1000 atoms

# run_style
run_style verlet

# write restart
write_restart ./pgnpmf/1000/equpmf52.res
System init for write_restart ...
Generated 0 of 1 mixed pair_coeff terms from geometric mixing rule
