LAMMPS (23 Jun 2022 - Update 1)
# Read restart
read_restart ./pgnpmf/200800/equpmf71.res
Reading restart file ...
  restart file = 23 Jun 2022, LAMMPS = 23 Jun 2022
  restoring atom style atomic from restart
  orthogonal box = (2134.1279 2134.1279 2134.1279) to (2865.8721 2865.8721 2865.8721)
  restoring pair style table from restart
  1000 atoms
  read_restart CPU = 0.040 seconds

# Settings

pair_style table spline 9941

pair_coeff 1 1 ./pgnpmf/N20.txt DE_GNP 75.6
pair_coeff 2 2 ./pgnpmf/N100.txt DE_GNP 115.92
pair_coeff 1 2 ./pgnpmf/mixed_potential.txt DE_GNP 95.66

#Neigh_list Calc Frequency

neigh_modify delay 0 every 1 check yes

# Saving Frequency (50 frames)

variable ts_save equal 5000

# Dump
#dump_modify 1 first no sort id
#dump 2 all cfg 50000 ./equilibration/trajectory/ovito/dumpgen.tens_*.cfg mass type xs ys zs fx fy fz

# thermo_style
thermo_style custom step temp press pe density ke etotal lx ly lz xlo xhi ylo yhi zlo zhi vol dt time cpu tpcpu spcpu cpuremain

# run info
timestep 0.1
thermo 200

# fix

fix 1 all momentum 1000 linear 1 1 1 angular
variable T equal 300
fix 2 all nvt temp 300 370000 100.0

run 100000
Generated 0 of 1 mixed pair_coeff terms from geometric mixing rule
Unused restart file global fix info:
  fix style: npt, fix ID: 5
  update every 1 steps, delay 0 steps, check yes
Step          Temp          Press          PotEng        Density         KinEng         TotEng           Lx             Ly             Lz            Xlo            Xhi            Ylo            Yhi            Zlo            Zhi           Volume           Dt            Time           CPU           T/CPU          S/CPU         CPULeft
49705000   305.3598       3.120517      -48983664       1.6190011      909.30935     -48982754       731.74416      731.74416      731.74416      2134.1279      2865.8721      2134.1279      2865.8721      2134.1279      2865.8721      3.9181205e+08  0.1            4975000        0              0              0              0
Averages over the last 251 of 501 rows, steps 49755000 to 49805000:
Temp Press PotEng Density KinEng TotEng Lx Ly Lz Xlo Xhi Ylo Yhi Zlo Zhi Volume Dt
277852 539.924 -4.8749e+07 1.619 827397 -4.79216e+07 731.744 731.744 731.744 2134.13 2865.87 2134.13 2865.87 2134.13 2865.87 3.91812e+08 0.1
Loop time of 20.6658 on 1 procs for 100000 steps with 1000 atoms

unfix 2

fix 3 all nvt temp 370000 370000 $(100.0*dt) #iso 1.0 1.0 $(1000.0*dt)
fix 3 all nvt temp 370000 370000 10

run 200000
Generated 0 of 1 mixed pair_coeff terms from geometric mixing rule
Step          Temp          Press          PotEng        Density         KinEng         TotEng           Lx             Ly             Lz            Xlo            Xhi            Ylo            Yhi            Zlo            Zhi           Volume           Dt            Time           CPU           T/CPU          S/CPU         CPULeft
49805000   377618.04      940.85366     -48565022       1.6190011      1124482       -47440540       731.74416      731.74416      731.74416      2134.1279      2865.8721      2134.1279      2865.8721      2134.1279      2865.8721      3.9181205e+08  0.1            4985000        0              0              0              0
Averages over the last 501 of 1001 rows, steps 49905000 to 50005000:
Temp Press PotEng Density KinEng TotEng Lx Ly Lz Xlo Xhi Ylo Yhi Zlo Zhi Volume Dt
370166 1567.36 -4.81967e+07 1.619 1.10229e+06 -4.70944e+07 731.744 731.744 731.744 2134.13 2865.87 2134.13 2865.87 2134.13 2865.87 3.91812e+08 0.1
Loop time of 42.0679 on 1 procs for 200000 steps with 1000 atoms

unfix 3

fix 4 all nvt temp 370000 300 100.0

run 100000
Generated 0 of 1 mixed pair_coeff terms from geometric mixing rule
Step          Temp          Press          PotEng        Density         KinEng         TotEng           Lx             Ly             Lz            Xlo            Xhi            Ylo            Yhi            Zlo            Zhi           Volume           Dt            Time           CPU           T/CPU          S/CPU         CPULeft
50005000   362530.78      1561.6555     -47987283       1.6190011      1079554.8     -46907728       731.74416      731.74416      731.74416      2134.1279      2865.8721      2134.1279      2865.8721      2134.1279      2865.8721      3.9181205e+08  0.1            5005000        0              0              0              0
Averages over the last 251 of 501 rows, steps 50055000 to 50105000:
Temp Press PotEng Density KinEng TotEng Lx Ly Lz Xlo Xhi Ylo Yhi Zlo Zhi Volume Dt
96519.3 528.299 -4.85526e+07 1.619 287418 -4.82652e+07 731.744 731.744 731.744 2134.13 2865.87 2134.13 2865.87 2134.13 2865.87 3.91812e+08 0.1
Loop time of 20.8348 on 1 procs for 100000 steps with 1000 atoms

unfix 4

fix 5 all npt temp 300 300 $(100.0*dt) iso 1.0 1.0 $(1000.0*dt)
fix 5 all npt temp 300 300 10 iso 1.0 1.0 $(1000.0*dt)
fix 5 all npt temp 300 300 10 iso 1.0 1.0 100

run 300000
Generated 0 of 1 mixed pair_coeff terms from geometric mixing rule
Step          Temp          Press          PotEng        Density         KinEng         TotEng           Lx             Ly             Lz            Xlo            Xhi            Ylo            Yhi            Zlo            Zhi           Volume           Dt            Time           CPU           T/CPU          S/CPU         CPULeft
50105000   5156.3678      154.03813     -48702930       1.6190011      15354.783     -48687575       731.74416      731.74416      731.74416      2134.1279      2865.8721      2134.1279      2865.8721      2134.1279      2865.8721      3.9181205e+08  0.1            5015000        0              0              0              0
Averages over the last 751 of 1501 rows, steps 50255000 to 50405000:
Temp Press PotEng Density KinEng TotEng Lx Ly Lz Xlo Xhi Ylo Yhi Zlo Zhi Volume Dt
306.429 1.03225 -4.8863e+07 1.62171 912.492 -4.88621e+07 731.337 731.337 731.337 2134.33 2865.67 2134.33 2865.67 2134.33 2865.67 3.91158e+08 0.1
Loop time of 70.9358 on 1 procs for 300000 steps with 1000 atoms

# run_style
run_style verlet

# write restart
write_restart ./pgnpmf/200800/equpmf72.res
System init for write_restart ...
Generated 0 of 1 mixed pair_coeff terms from geometric mixing rule
