LAMMPS (23 Jun 2022 - Update 1)
# Read restart
read_restart ./pgnpmf/200800/equpmf58.res
Reading restart file ...
  restart file = 23 Jun 2022, LAMMPS = 23 Jun 2022
  restoring atom style atomic from restart
  orthogonal box = (2129.9123 2129.9123 2129.9123) to (2870.0877 2870.0877 2870.0877)
  restoring pair style table from restart
  1000 atoms
  read_restart CPU = 0.005 seconds

# Settings

pair_style table spline 9941

pair_coeff 1 1 ./pgnpmf/N20.txt DE_GNP 75.6
pair_coeff 2 2 ./pgnpmf/N100.txt DE_GNP 115.92
pair_coeff 1 2 ./pgnpmf/mixed_potential.txt DE_GNP 95.66

#Neigh_list Calc Frequency

neigh_modify delay 0 every 1 check yes

# Saving Frequency (50 frames)

variable ts_save equal 5000

# Dump
#dump_modify 1 first no sort id
#dump 2 all cfg 50000 ./equilibration/trajectory/ovito/dumpgen.tens_*.cfg mass type xs ys zs fx fy fz

# thermo_style
thermo_style custom step temp press pe density ke etotal lx ly lz xlo xhi ylo yhi zlo zhi vol dt time cpu tpcpu spcpu cpuremain

# run info
timestep 0.1
thermo 200

# fix

fix 1 all momentum 1000 linear 1 1 1 angular
variable T equal 300
fix 2 all nvt temp 300 370000 100.0

run 100000
Generated 0 of 1 mixed pair_coeff terms from geometric mixing rule
Unused restart file global fix info:
  fix style: npt, fix ID: 5
  update every 1 steps, delay 0 steps, check yes
Step          Temp          Press          PotEng        Density         KinEng         TotEng           Lx             Ly             Lz            Xlo            Xhi            Ylo            Yhi            Zlo            Zhi           Volume           Dt            Time           CPU           T/CPU          S/CPU         CPULeft
40605000   305.16645      5.0125605     -48550380       1.5643036      908.73357     -48549471       740.17536      740.17536      740.17536      2129.9123      2870.0877      2129.9123      2870.0877      2129.9123      2870.0877      4.0551216e+08  0.1            4065000        0              0              0              0
Averages over the last 251 of 501 rows, steps 40655000 to 40705000:
Temp Press PotEng Density KinEng TotEng Lx Ly Lz Xlo Xhi Ylo Yhi Zlo Zhi Volume Dt
277357 739.462 -4.82698e+07 1.5643 825922 -4.74439e+07 740.175 740.175 740.175 2129.91 2870.09 2129.91 2870.09 2129.91 2870.09 4.05512e+08 0.1
Loop time of 6.27821 on 8 procs for 100000 steps with 1000 atoms

unfix 2

fix 3 all nvt temp 370000 370000 $(100.0*dt) #iso 1.0 1.0 $(1000.0*dt)
fix 3 all nvt temp 370000 370000 10

run 200000
Generated 0 of 1 mixed pair_coeff terms from geometric mixing rule
Step          Temp          Press          PotEng        Density         KinEng         TotEng           Lx             Ly             Lz            Xlo            Xhi            Ylo            Yhi            Zlo            Zhi           Volume           Dt            Time           CPU           T/CPU          S/CPU         CPULeft
40705000   360682.73      1253.587      -48019742       1.5643036      1074051.6     -46945691       740.17536      740.17536      740.17536      2129.9123      2870.0877      2129.9123      2870.0877      2129.9123      2870.0877      4.0551216e+08  0.1            4075000        0              0              0              0
Averages over the last 501 of 1001 rows, steps 40805000 to 40905000:
Temp Press PotEng Density KinEng TotEng Lx Ly Lz Xlo Xhi Ylo Yhi Zlo Zhi Volume Dt
369885 1822.65 -4.76651e+07 1.5643 1.10146e+06 -4.65636e+07 740.175 740.175 740.175 2129.91 2870.09 2129.91 2870.09 2129.91 2870.09 4.05512e+08 0.1
Loop time of 12.5516 on 8 procs for 200000 steps with 1000 atoms

unfix 3

fix 4 all nvt temp 370000 300 100.0

run 100000
Generated 0 of 1 mixed pair_coeff terms from geometric mixing rule
Step          Temp          Press          PotEng        Density         KinEng         TotEng           Lx             Ly             Lz            Xlo            Xhi            Ylo            Yhi            Zlo            Zhi           Volume           Dt            Time           CPU           T/CPU          S/CPU         CPULeft
40905000   370194.71      1559.2089     -47575264       1.5643036      1102376.6     -46472887       740.17536      740.17536      740.17536      2129.9123      2870.0877      2129.9123      2870.0877      2129.9123      2870.0877      4.0551216e+08  0.1            4095000        0              0              0              0
Averages over the last 251 of 501 rows, steps 40955000 to 41005000:
Temp Press PotEng Density KinEng TotEng Lx Ly Lz Xlo Xhi Ylo Yhi Zlo Zhi Volume Dt
96251.1 479.014 -4.80204e+07 1.5643 286619 -4.77338e+07 740.175 740.175 740.175 2129.91 2870.09 2129.91 2870.09 2129.91 2870.09 4.05512e+08 0.1
Loop time of 6.23141 on 8 procs for 100000 steps with 1000 atoms

unfix 4

fix 5 all npt temp 300 300 $(100.0*dt) iso 1.0 1.0 $(1000.0*dt)
fix 5 all npt temp 300 300 10 iso 1.0 1.0 $(1000.0*dt)
fix 5 all npt temp 300 300 10 iso 1.0 1.0 100

run 300000
Generated 0 of 1 mixed pair_coeff terms from geometric mixing rule
Step          Temp          Press          PotEng        Density         KinEng         TotEng           Lx             Ly             Lz            Xlo            Xhi            Ylo            Yhi            Zlo            Zhi           Volume           Dt            Time           CPU           T/CPU          S/CPU         CPULeft
41005000   5192.8164      153.73745     -48134510       1.5643036      15463.321     -48119047       740.17536      740.17536      740.17536      2129.9123      2870.0877      2129.9123      2870.0877      2129.9123      2870.0877      4.0551216e+08  0.1            4105000        0              0              0              0
Averages over the last 751 of 1501 rows, steps 41155000 to 41305000:
Temp Press PotEng Density KinEng TotEng Lx Ly Lz Xlo Xhi Ylo Yhi Zlo Zhi Volume Dt
306.42 1.16787 -4.83544e+07 1.56626 912.467 -4.83535e+07 739.867 739.867 739.867 2130.07 2869.93 2130.07 2869.93 2130.07 2869.93 4.05006e+08 0.1
Loop time of 22.4726 on 8 procs for 300000 steps with 1000 atoms

# run_style
run_style verlet

# write restart
write_restart ./pgnpmf/200800/equpmf59.res
System init for write_restart ...
Generated 0 of 1 mixed pair_coeff terms from geometric mixing rule
