LAMMPS (23 Jun 2022 - Update 1)
# Read restart
read_restart ./pgnpmf/200800/equpmf69.res
Reading restart file ...
  restart file = 23 Jun 2022, LAMMPS = 23 Jun 2022
  restoring atom style atomic from restart
  orthogonal box = (2134.1274 2134.1274 2134.1274) to (2865.8726 2865.8726 2865.8726)
  restoring pair style table from restart
  1000 atoms
  read_restart CPU = 0.008 seconds

# Settings

pair_style table spline 9941

pair_coeff 1 1 ./pgnpmf/N20.txt DE_GNP 75.6
pair_coeff 2 2 ./pgnpmf/N100.txt DE_GNP 115.92
pair_coeff 1 2 ./pgnpmf/mixed_potential.txt DE_GNP 95.66

#Neigh_list Calc Frequency

neigh_modify delay 0 every 1 check yes

# Saving Frequency (50 frames)

variable ts_save equal 5000

# Dump
#dump_modify 1 first no sort id
#dump 2 all cfg 50000 ./equilibration/trajectory/ovito/dumpgen.tens_*.cfg mass type xs ys zs fx fy fz

# thermo_style
thermo_style custom step temp press pe density ke etotal lx ly lz xlo xhi ylo yhi zlo zhi vol dt time cpu tpcpu spcpu cpuremain

# run info
timestep 0.1
thermo 200

# fix

fix 1 all momentum 1000 linear 1 1 1 angular
variable T equal 300
fix 2 all nvt temp 300 370000 100.0

run 100000
Generated 0 of 1 mixed pair_coeff terms from geometric mixing rule
Unused restart file global fix info:
  fix style: npt, fix ID: 5
  update every 1 steps, delay 0 steps, check yes
Step          Temp          Press          PotEng        Density         KinEng         TotEng           Lx             Ly             Lz            Xlo            Xhi            Ylo            Yhi            Zlo            Zhi           Volume           Dt            Time           CPU           T/CPU          S/CPU         CPULeft
48305000   305.28543      1.8059086     -49070010       1.6189937      909.08789     -49069101       731.74527      731.74527      731.74527      2134.1274      2865.8726      2134.1274      2865.8726      2134.1274      2865.8726      3.9181384e+08  0.1            4835000        0              0              0              0
Averages over the last 251 of 501 rows, steps 48355000 to 48405000:
Temp Press PotEng Density KinEng TotEng Lx Ly Lz Xlo Xhi Ylo Yhi Zlo Zhi Volume Dt
277036 657.748 -4.88296e+07 1.61899 824965 -4.80046e+07 731.745 731.745 731.745 2134.13 2865.87 2134.13 2865.87 2134.13 2865.87 3.91814e+08 0.1
Loop time of 6.09801 on 8 procs for 100000 steps with 1000 atoms

unfix 2

fix 3 all nvt temp 370000 370000 $(100.0*dt) #iso 1.0 1.0 $(1000.0*dt)
fix 3 all nvt temp 370000 370000 10

run 200000
Generated 0 of 1 mixed pair_coeff terms from geometric mixing rule
Step          Temp          Press          PotEng        Density         KinEng         TotEng           Lx             Ly             Lz            Xlo            Xhi            Ylo            Yhi            Zlo            Zhi           Volume           Dt            Time           CPU           T/CPU          S/CPU         CPULeft
48405000   366867.61      1088.745      -48718860       1.6189937      1092469.1     -47626391       731.74527      731.74527      731.74527      2134.1274      2865.8726      2134.1274      2865.8726      2134.1274      2865.8726      3.9181384e+08  0.1            4845000        0              0              0              0
Averages over the last 501 of 1001 rows, steps 48505000 to 48605000:
Temp Press PotEng Density KinEng TotEng Lx Ly Lz Xlo Xhi Ylo Yhi Zlo Zhi Volume Dt
370306 1738.74 -4.8283e+07 1.61899 1.10271e+06 -4.71803e+07 731.745 731.745 731.745 2134.13 2865.87 2134.13 2865.87 2134.13 2865.87 3.91814e+08 0.1
Loop time of 12.1843 on 8 procs for 200000 steps with 1000 atoms

unfix 3

fix 4 all nvt temp 370000 300 100.0

run 100000
Generated 0 of 1 mixed pair_coeff terms from geometric mixing rule
Step          Temp          Press          PotEng        Density         KinEng         TotEng           Lx             Ly             Lz            Xlo            Xhi            Ylo            Yhi            Zlo            Zhi           Volume           Dt            Time           CPU           T/CPU          S/CPU         CPULeft
48605000   367479.12      1713.7289     -48195666       1.6189937      1094290.1     -47101376       731.74527      731.74527      731.74527      2134.1274      2865.8726      2134.1274      2865.8726      2134.1274      2865.8726      3.9181384e+08  0.1            4865000        0              0              0              0
Averages over the last 251 of 501 rows, steps 48655000 to 48705000:
Temp Press PotEng Density KinEng TotEng Lx Ly Lz Xlo Xhi Ylo Yhi Zlo Zhi Volume Dt
96731.3 836.844 -4.85903e+07 1.61899 288049 -4.83022e+07 731.745 731.745 731.745 2134.13 2865.87 2134.13 2865.87 2134.13 2865.87 3.91814e+08 0.1
Loop time of 6.05424 on 8 procs for 100000 steps with 1000 atoms

unfix 4

fix 5 all npt temp 300 300 $(100.0*dt) iso 1.0 1.0 $(1000.0*dt)
fix 5 all npt temp 300 300 10 iso 1.0 1.0 $(1000.0*dt)
fix 5 all npt temp 300 300 10 iso 1.0 1.0 100

run 300000
Generated 0 of 1 mixed pair_coeff terms from geometric mixing rule
Step          Temp          Press          PotEng        Density         KinEng         TotEng           Lx             Ly             Lz            Xlo            Xhi            Ylo            Yhi            Zlo            Zhi           Volume           Dt            Time           CPU           T/CPU          S/CPU         CPULeft
48705000   5221.3703      435.90798     -48775465       1.6189937      15548.349     -48759917       731.74527      731.74527      731.74527      2134.1274      2865.8726      2134.1274      2865.8726      2134.1274      2865.8726      3.9181384e+08  0.1            4875000        0              0              0              0
Averages over the last 751 of 1501 rows, steps 48855000 to 49005000:
Temp Press PotEng Density KinEng TotEng Lx Ly Lz Xlo Xhi Ylo Yhi Zlo Zhi Volume Dt
306.33 1.25236 -4.88841e+07 1.61215 912.198 -4.88832e+07 732.779 732.779 732.779 2133.61 2866.39 2133.61 2866.39 2133.61 2866.39 3.93476e+08 0.1
Loop time of 22.0493 on 8 procs for 300000 steps with 1000 atoms

# run_style
run_style verlet

# write restart
write_restart ./pgnpmf/200800/equpmf70.res
System init for write_restart ...
Generated 0 of 1 mixed pair_coeff terms from geometric mixing rule
