LAMMPS (23 Jun 2022 - Update 1)
# Read restart
read_restart ./pgnpmf/200800/equpmf76.res
Reading restart file ...
  restart file = 23 Jun 2022, LAMMPS = 23 Jun 2022
  restoring atom style atomic from restart
  orthogonal box = (2135.8434 2135.8434 2135.8434) to (2864.1566 2864.1566 2864.1566)
  restoring pair style table from restart
  1000 atoms
  read_restart CPU = 0.003 seconds

# Settings

pair_style table spline 9941

pair_coeff 1 1 ./pgnpmf/N20.txt DE_GNP 75.6
pair_coeff 2 2 ./pgnpmf/N100.txt DE_GNP 115.92
pair_coeff 1 2 ./pgnpmf/mixed_potential.txt DE_GNP 95.66

#Neigh_list Calc Frequency

neigh_modify delay 0 every 1 check yes

# Saving Frequency (50 frames)

variable ts_save equal 5000

# Dump
#dump_modify 1 first no sort id
#dump 2 all cfg 50000 ./equilibration/trajectory/ovito/dumpgen.tens_*.cfg mass type xs ys zs fx fy fz

# thermo_style
thermo_style custom step temp press pe density ke etotal lx ly lz xlo xhi ylo yhi zlo zhi vol dt time cpu tpcpu spcpu cpuremain

# run info
timestep 0.1
thermo 200

# fix

fix 1 all momentum 1000 linear 1 1 1 angular
variable T equal 300
fix 2 all nvt temp 300 370000 100.0

run 100000
Generated 0 of 1 mixed pair_coeff terms from geometric mixing rule
Unused restart file global fix info:
  fix style: npt, fix ID: 5
  update every 1 steps, delay 0 steps, check yes
Step          Temp          Press          PotEng        Density         KinEng         TotEng           Lx             Ly             Lz            Xlo            Xhi            Ylo            Yhi            Zlo            Zhi           Volume           Dt            Time           CPU           T/CPU          S/CPU         CPULeft
53205000   305.40919      0.54804797    -49230202       1.6419897      909.45642     -49229292       728.31317      728.31317      728.31317      2135.8434      2864.1566      2135.8434      2864.1566      2135.8434      2864.1566      3.863265e+08   0.1            5325000        0              0              0              0
Averages over the last 251 of 501 rows, steps 53255000 to 53305000:
Temp Press PotEng Density KinEng TotEng Lx Ly Lz Xlo Xhi Ylo Yhi Zlo Zhi Volume Dt
277613 556.804 -4.89706e+07 1.64199 826684 -4.81439e+07 728.313 728.313 728.313 2135.84 2864.16 2135.84 2864.16 2135.84 2864.16 3.86326e+08 0.1
Loop time of 20.4403 on 1 procs for 100000 steps with 1000 atoms

unfix 2

fix 3 all nvt temp 370000 370000 $(100.0*dt) #iso 1.0 1.0 $(1000.0*dt)
fix 3 all nvt temp 370000 370000 10

run 200000
Generated 0 of 1 mixed pair_coeff terms from geometric mixing rule
Step          Temp          Press          PotEng        Density         KinEng         TotEng           Lx             Ly             Lz            Xlo            Xhi            Ylo            Yhi            Zlo            Zhi           Volume           Dt            Time           CPU           T/CPU          S/CPU         CPULeft
53305000   380580.12      955.05427     -48669011       1.6419897      1133302.6     -47535708       728.31317      728.31317      728.31317      2135.8434      2864.1566      2135.8434      2864.1566      2135.8434      2864.1566      3.863265e+08   0.1            5335000        0              0              0              0
Averages over the last 501 of 1001 rows, steps 53405000 to 53505000:
Temp Press PotEng Density KinEng TotEng Lx Ly Lz Xlo Xhi Ylo Yhi Zlo Zhi Volume Dt
369909 1458.88 -4.84383e+07 1.64199 1.10153e+06 -4.73368e+07 728.313 728.313 728.313 2135.84 2864.16 2135.84 2864.16 2135.84 2864.16 3.86326e+08 0.1
Loop time of 41.5078 on 1 procs for 200000 steps with 1000 atoms

unfix 3

fix 4 all nvt temp 370000 300 100.0

run 100000
Generated 0 of 1 mixed pair_coeff terms from geometric mixing rule
Step          Temp          Press          PotEng        Density         KinEng         TotEng           Lx             Ly             Lz            Xlo            Xhi            Ylo            Yhi            Zlo            Zhi           Volume           Dt            Time           CPU           T/CPU          S/CPU         CPULeft
53505000   369631.62      1470.0571     -48420452       1.6419897      1100699.8     -47319752       728.31317      728.31317      728.31317      2135.8434      2864.1566      2135.8434      2864.1566      2135.8434      2864.1566      3.863265e+08   0.1            5355000        0              0              0              0
Averages over the last 251 of 501 rows, steps 53555000 to 53605000:
Temp Press PotEng Density KinEng TotEng Lx Ly Lz Xlo Xhi Ylo Yhi Zlo Zhi Volume Dt
96657.2 642.856 -4.88493e+07 1.64199 287829 -4.85615e+07 728.313 728.313 728.313 2135.84 2864.16 2135.84 2864.16 2135.84 2864.16 3.86326e+08 0.1
Loop time of 20.6504 on 1 procs for 100000 steps with 1000 atoms

unfix 4

fix 5 all npt temp 300 300 $(100.0*dt) iso 1.0 1.0 $(1000.0*dt)
fix 5 all npt temp 300 300 10 iso 1.0 1.0 $(1000.0*dt)
fix 5 all npt temp 300 300 10 iso 1.0 1.0 100

run 300000
Generated 0 of 1 mixed pair_coeff terms from geometric mixing rule
Step          Temp          Press          PotEng        Density         KinEng         TotEng           Lx             Ly             Lz            Xlo            Xhi            Ylo            Yhi            Zlo            Zhi           Volume           Dt            Time           CPU           T/CPU          S/CPU         CPULeft
53605000   5196.4709      266.67082     -49072913       1.6419897      15474.203     -49057439       728.31317      728.31317      728.31317      2135.8434      2864.1566      2135.8434      2864.1566      2135.8434      2864.1566      3.863265e+08   0.1            5365000        0              0              0              0
Averages over the last 751 of 1501 rows, steps 53755000 to 53905000:
Temp Press PotEng Density KinEng TotEng Lx Ly Lz Xlo Xhi Ylo Yhi Zlo Zhi Volume Dt
306.309 1.02944 -4.91849e+07 1.64115 912.137 -4.9184e+07 728.437 728.437 728.437 2135.78 2864.22 2135.78 2864.22 2135.78 2864.22 3.86524e+08 0.1
Loop time of 70.329 on 1 procs for 300000 steps with 1000 atoms

# run_style
run_style verlet

# write restart
write_restart ./pgnpmf/200800/equpmf77.res
System init for write_restart ...
Generated 0 of 1 mixed pair_coeff terms from geometric mixing rule
