LAMMPS (23 Jun 2022 - Update 1)
# Read restart
read_restart ./pgnpmf/200800/equpmf80.res
Reading restart file ...
  restart file = 23 Jun 2022, LAMMPS = 23 Jun 2022
  restoring atom style atomic from restart
  orthogonal box = (2135.9305 2135.9305 2135.9305) to (2864.0695 2864.0695 2864.0695)
  restoring pair style table from restart
  1000 atoms
  read_restart CPU = 0.004 seconds

# Settings

pair_style table spline 9941

pair_coeff 1 1 ./pgnpmf/N20.txt DE_GNP 75.6
pair_coeff 2 2 ./pgnpmf/N100.txt DE_GNP 115.92
pair_coeff 1 2 ./pgnpmf/mixed_potential.txt DE_GNP 95.66

#Neigh_list Calc Frequency

neigh_modify delay 0 every 1 check yes

# Saving Frequency (50 frames)

variable ts_save equal 5000

# Dump
#dump_modify 1 first no sort id
#dump 2 all cfg 50000 ./equilibration/trajectory/ovito/dumpgen.tens_*.cfg mass type xs ys zs fx fy fz

# thermo_style
thermo_style custom step temp press pe density ke etotal lx ly lz xlo xhi ylo yhi zlo zhi vol dt time cpu tpcpu spcpu cpuremain

# run info
timestep 0.1
thermo 200

# fix

fix 1 all momentum 1000 linear 1 1 1 angular
variable T equal 300
fix 2 all nvt temp 300 370000 100.0

run 100000
Generated 0 of 1 mixed pair_coeff terms from geometric mixing rule
Unused restart file global fix info:
  fix style: npt, fix ID: 5
  update every 1 steps, delay 0 steps, check yes
Step          Temp          Press          PotEng        Density         KinEng         TotEng           Lx             Ly             Lz            Xlo            Xhi            Ylo            Yhi            Zlo            Zhi           Volume           Dt            Time           CPU           T/CPU          S/CPU         CPULeft
56005000   305.24678      2.5188683     -49480296       1.6431679      908.97279     -49479387       728.13905      728.13905      728.13905      2135.9305      2864.0695      2135.9305      2864.0695      2135.9305      2864.0695      3.8604948e+08  0.1            5605000        0              0              0              0
Averages over the last 251 of 501 rows, steps 56055000 to 56105000:
Temp Press PotEng Density KinEng TotEng Lx Ly Lz Xlo Xhi Ylo Yhi Zlo Zhi Volume Dt
276920 442.878 -4.91663e+07 1.64317 824619 -4.83416e+07 728.139 728.139 728.139 2135.93 2864.07 2135.93 2864.07 2135.93 2864.07 3.86049e+08 0.1
Loop time of 20.4846 on 1 procs for 100000 steps with 1000 atoms

unfix 2

fix 3 all nvt temp 370000 370000 $(100.0*dt) #iso 1.0 1.0 $(1000.0*dt)
fix 3 all nvt temp 370000 370000 10

run 200000
Generated 0 of 1 mixed pair_coeff terms from geometric mixing rule
Step          Temp          Press          PotEng        Density         KinEng         TotEng           Lx             Ly             Lz            Xlo            Xhi            Ylo            Yhi            Zlo            Zhi           Volume           Dt            Time           CPU           T/CPU          S/CPU         CPULeft
56105000   364704.63      787.69353     -48914365       1.6431679      1086028.1     -47828337       728.13905      728.13905      728.13905      2135.9305      2864.0695      2135.9305      2864.0695      2135.9305      2864.0695      3.8604948e+08  0.1            5615000        0              0              0              0
Averages over the last 501 of 1001 rows, steps 56205000 to 56305000:
Temp Press PotEng Density KinEng TotEng Lx Ly Lz Xlo Xhi Ylo Yhi Zlo Zhi Volume Dt
370228 1404.36 -4.86622e+07 1.64317 1.10248e+06 -4.75597e+07 728.139 728.139 728.139 2135.93 2864.07 2135.93 2864.07 2135.93 2864.07 3.86049e+08 0.1
Loop time of 41.6798 on 1 procs for 200000 steps with 1000 atoms

unfix 3

fix 4 all nvt temp 370000 300 100.0

run 100000
Generated 0 of 1 mixed pair_coeff terms from geometric mixing rule
Step          Temp          Press          PotEng        Density         KinEng         TotEng           Lx             Ly             Lz            Xlo            Xhi            Ylo            Yhi            Zlo            Zhi           Volume           Dt            Time           CPU           T/CPU          S/CPU         CPULeft
56305000   371670.64      1543.9102     -48725558       1.6431679      1106771.7     -47618786       728.13905      728.13905      728.13905      2135.9305      2864.0695      2135.9305      2864.0695      2135.9305      2864.0695      3.8604948e+08  0.1            5635000        0              0              0              0
Averages over the last 251 of 501 rows, steps 56355000 to 56405000:
Temp Press PotEng Density KinEng TotEng Lx Ly Lz Xlo Xhi Ylo Yhi Zlo Zhi Volume Dt
96622.7 712.053 -4.8915e+07 1.64317 287726 -4.86272e+07 728.139 728.139 728.139 2135.93 2864.07 2135.93 2864.07 2135.93 2864.07 3.86049e+08 0.1
Loop time of 20.7463 on 1 procs for 100000 steps with 1000 atoms

unfix 4

fix 5 all npt temp 300 300 $(100.0*dt) iso 1.0 1.0 $(1000.0*dt)
fix 5 all npt temp 300 300 10 iso 1.0 1.0 $(1000.0*dt)
fix 5 all npt temp 300 300 10 iso 1.0 1.0 100

run 300000
Generated 0 of 1 mixed pair_coeff terms from geometric mixing rule
Step          Temp          Press          PotEng        Density         KinEng         TotEng           Lx             Ly             Lz            Xlo            Xhi            Ylo            Yhi            Zlo            Zhi           Volume           Dt            Time           CPU           T/CPU          S/CPU         CPULeft
56405000   5172.3999      333.02827     -49144571       1.6431679      15402.524     -49129169       728.13905      728.13905      728.13905      2135.9305      2864.0695      2135.9305      2864.0695      2135.9305      2864.0695      3.8604948e+08  0.1            5645000        0              0              0              0
Averages over the last 751 of 1501 rows, steps 56555000 to 56705000:
Temp Press PotEng Density KinEng TotEng Lx Ly Lz Xlo Xhi Ylo Yhi Zlo Zhi Volume Dt
306.255 0.944954 -4.92497e+07 1.64009 911.974 -4.92488e+07 728.594 728.594 728.594 2135.7 2864.3 2135.7 2864.3 2135.7 2864.3 3.86774e+08 0.1
Loop time of 70.6932 on 1 procs for 300000 steps with 1000 atoms

# run_style
run_style verlet

# write restart
write_restart ./pgnpmf/200800/equpmf81.res
System init for write_restart ...
Generated 0 of 1 mixed pair_coeff terms from geometric mixing rule
