LAMMPS (23 Jun 2022 - Update 1)
# Read restart
read_restart ./pgnpmf/200800/equpmf59.res
Reading restart file ...
  restart file = 23 Jun 2022, LAMMPS = 23 Jun 2022
  restoring atom style atomic from restart
  orthogonal box = (2130.1495 2130.1495 2130.1495) to (2869.8505 2869.8505 2869.8505)
  restoring pair style table from restart
  1000 atoms
  read_restart CPU = 0.008 seconds

# Settings

pair_style table spline 9941

pair_coeff 1 1 ./pgnpmf/N20.txt DE_GNP 75.6
pair_coeff 2 2 ./pgnpmf/N100.txt DE_GNP 115.92
pair_coeff 1 2 ./pgnpmf/mixed_potential.txt DE_GNP 95.66

#Neigh_list Calc Frequency

neigh_modify delay 0 every 1 check yes

# Saving Frequency (50 frames)

variable ts_save equal 5000

# Dump
#dump_modify 1 first no sort id
#dump 2 all cfg 50000 ./equilibration/trajectory/ovito/dumpgen.tens_*.cfg mass type xs ys zs fx fy fz

# thermo_style
thermo_style custom step temp press pe density ke etotal lx ly lz xlo xhi ylo yhi zlo zhi vol dt time cpu tpcpu spcpu cpuremain

# run info
timestep 0.1
thermo 200

# fix

fix 1 all momentum 1000 linear 1 1 1 angular
variable T equal 300
fix 2 all nvt temp 300 370000 100.0

run 100000
Generated 0 of 1 mixed pair_coeff terms from geometric mixing rule
Unused restart file global fix info:
  fix style: npt, fix ID: 5
  update every 1 steps, delay 0 steps, check yes
Step          Temp          Press          PotEng        Density         KinEng         TotEng           Lx             Ly             Lz            Xlo            Xhi            Ylo            Yhi            Zlo            Zhi           Volume           Dt            Time           CPU           T/CPU          S/CPU         CPULeft
41305000   305.24876      0.39898417    -48402723       1.5673152      908.97867     -48401814       739.70097      739.70097      739.70097      2130.1495      2869.8505      2130.1495      2869.8505      2130.1495      2869.8505      4.0473296e+08  0.1            4135000        0              0              0              0
Averages over the last 251 of 501 rows, steps 41355000 to 41405000:
Temp Press PotEng Density KinEng TotEng Lx Ly Lz Xlo Xhi Ylo Yhi Zlo Zhi Volume Dt
277202 699.043 -4.82979e+07 1.56732 825459 -4.74725e+07 739.701 739.701 739.701 2130.15 2869.85 2130.15 2869.85 2130.15 2869.85 4.04733e+08 0.1
Loop time of 6.098 on 8 procs for 100000 steps with 1000 atoms

unfix 2

fix 3 all nvt temp 370000 370000 $(100.0*dt) #iso 1.0 1.0 $(1000.0*dt)
fix 3 all nvt temp 370000 370000 10

run 200000
Generated 0 of 1 mixed pair_coeff terms from geometric mixing rule
Step          Temp          Press          PotEng        Density         KinEng         TotEng           Lx             Ly             Lz            Xlo            Xhi            Ylo            Yhi            Zlo            Zhi           Volume           Dt            Time           CPU           T/CPU          S/CPU         CPULeft
41405000   369798.61      1219.4962     -48009796       1.5673152      1101197.1     -46908599       739.70097      739.70097      739.70097      2130.1495      2869.8505      2130.1495      2869.8505      2130.1495      2869.8505      4.0473296e+08  0.1            4145000        0              0              0              0
Averages over the last 501 of 1001 rows, steps 41505000 to 41605000:
Temp Press PotEng Density KinEng TotEng Lx Ly Lz Xlo Xhi Ylo Yhi Zlo Zhi Volume Dt
369903 1602.79 -4.77851e+07 1.56732 1.10151e+06 -4.66836e+07 739.701 739.701 739.701 2130.15 2869.85 2130.15 2869.85 2130.15 2869.85 4.04733e+08 0.1
Loop time of 12.3593 on 8 procs for 200000 steps with 1000 atoms

unfix 3

fix 4 all nvt temp 370000 300 100.0

run 100000
Generated 0 of 1 mixed pair_coeff terms from geometric mixing rule
Step          Temp          Press          PotEng        Density         KinEng         TotEng           Lx             Ly             Lz            Xlo            Xhi            Ylo            Yhi            Zlo            Zhi           Volume           Dt            Time           CPU           T/CPU          S/CPU         CPULeft
41605000   391340.12      1406.311      -47598677       1.5673152      1165344.1     -46433333       739.70097      739.70097      739.70097      2130.1495      2869.8505      2130.1495      2869.8505      2130.1495      2869.8505      4.0473296e+08  0.1            4165000        0              0              0              0
Averages over the last 251 of 501 rows, steps 41655000 to 41705000:
Temp Press PotEng Density KinEng TotEng Lx Ly Lz Xlo Xhi Ylo Yhi Zlo Zhi Volume Dt
96519.6 355.591 -4.79654e+07 1.56732 287419 -4.7678e+07 739.701 739.701 739.701 2130.15 2869.85 2130.15 2869.85 2130.15 2869.85 4.04733e+08 0.1
Loop time of 6.11527 on 8 procs for 100000 steps with 1000 atoms

unfix 4

fix 5 all npt temp 300 300 $(100.0*dt) iso 1.0 1.0 $(1000.0*dt)
fix 5 all npt temp 300 300 10 iso 1.0 1.0 $(1000.0*dt)
fix 5 all npt temp 300 300 10 iso 1.0 1.0 100

run 300000
Generated 0 of 1 mixed pair_coeff terms from geometric mixing rule
Step          Temp          Press          PotEng        Density         KinEng         TotEng           Lx             Ly             Lz            Xlo            Xhi            Ylo            Yhi            Zlo            Zhi           Volume           Dt            Time           CPU           T/CPU          S/CPU         CPULeft
41705000   5130.7941     -14.682217     -48157451       1.5673152      15278.629     -48142172       739.70097      739.70097      739.70097      2130.1495      2869.8505      2130.1495      2869.8505      2130.1495      2869.8505      4.0473296e+08  0.1            4175000        0              0              0              0
Averages over the last 751 of 1501 rows, steps 41855000 to 42005000:
Temp Press PotEng Density KinEng TotEng Lx Ly Lz Xlo Xhi Ylo Yhi Zlo Zhi Volume Dt
306.699 1.03287 -4.83972e+07 1.57495 913.297 -4.83963e+07 738.504 738.504 738.504 2130.75 2869.25 2130.75 2869.25 2130.75 2869.25 4.02771e+08 0.1
Loop time of 22.4092 on 8 procs for 300000 steps with 1000 atoms

# run_style
run_style verlet

# write restart
write_restart ./pgnpmf/200800/equpmf60.res
System init for write_restart ...
Generated 0 of 1 mixed pair_coeff terms from geometric mixing rule
