LAMMPS (23 Jun 2022 - Update 1)
# Read restart
read_restart ./pgnpmf/200800/equpmf73.res
Reading restart file ...
  restart file = 23 Jun 2022, LAMMPS = 23 Jun 2022
  restoring atom style atomic from restart
  orthogonal box = (2134.9477 2134.9477 2134.9477) to (2865.0523 2865.0523 2865.0523)
  restoring pair style table from restart
  1000 atoms
  read_restart CPU = 0.003 seconds

# Settings

pair_style table spline 9941

pair_coeff 1 1 ./pgnpmf/N20.txt DE_GNP 75.6
pair_coeff 2 2 ./pgnpmf/N100.txt DE_GNP 115.92
pair_coeff 1 2 ./pgnpmf/mixed_potential.txt DE_GNP 95.66

#Neigh_list Calc Frequency

neigh_modify delay 0 every 1 check yes

# Saving Frequency (50 frames)

variable ts_save equal 5000

# Dump
#dump_modify 1 first no sort id
#dump 2 all cfg 50000 ./equilibration/trajectory/ovito/dumpgen.tens_*.cfg mass type xs ys zs fx fy fz

# thermo_style
thermo_style custom step temp press pe density ke etotal lx ly lz xlo xhi ylo yhi zlo zhi vol dt time cpu tpcpu spcpu cpuremain

# run info
timestep 0.1
thermo 200

# fix

fix 1 all momentum 1000 linear 1 1 1 angular
variable T equal 300
fix 2 all nvt temp 300 370000 100.0

run 100000
Generated 0 of 1 mixed pair_coeff terms from geometric mixing rule
Unused restart file global fix info:
  fix style: npt, fix ID: 5
  update every 1 steps, delay 0 steps, check yes
Step          Temp          Press          PotEng        Density         KinEng         TotEng           Lx             Ly             Lz            Xlo            Xhi            Ylo            Yhi            Zlo            Zhi           Volume           Dt            Time           CPU           T/CPU          S/CPU         CPULeft
51105000   305.27992      5.7872949     -49142885       1.6299333      909.07148     -49141976       730.10451      730.10451      730.10451      2134.9477      2865.0523      2134.9477      2865.0523      2134.9477      2865.0523      3.8918411e+08  0.1            5115000        0              0              0              0
Averages over the last 251 of 501 rows, steps 51155000 to 51205000:
Temp Press PotEng Density KinEng TotEng Lx Ly Lz Xlo Xhi Ylo Yhi Zlo Zhi Volume Dt
277298 495.179 -4.89394e+07 1.62993 825745 -4.81136e+07 730.105 730.105 730.105 2134.95 2865.05 2134.95 2865.05 2134.95 2865.05 3.89184e+08 0.1
Loop time of 20.3881 on 1 procs for 100000 steps with 1000 atoms

unfix 2

fix 3 all nvt temp 370000 370000 $(100.0*dt) #iso 1.0 1.0 $(1000.0*dt)
fix 3 all nvt temp 370000 370000 10

run 200000
Generated 0 of 1 mixed pair_coeff terms from geometric mixing rule
Step          Temp          Press          PotEng        Density         KinEng         TotEng           Lx             Ly             Lz            Xlo            Xhi            Ylo            Yhi            Zlo            Zhi           Volume           Dt            Time           CPU           T/CPU          S/CPU         CPULeft
51205000   371319.79      937.12941     -48647389       1.6299333      1105726.9     -47541662       730.10451      730.10451      730.10451      2134.9477      2865.0523      2134.9477      2865.0523      2134.9477      2865.0523      3.8918411e+08  0.1            5125000        0              0              0              0
Averages over the last 501 of 1001 rows, steps 51305000 to 51405000:
Temp Press PotEng Density KinEng TotEng Lx Ly Lz Xlo Xhi Ylo Yhi Zlo Zhi Volume Dt
369793 1608.8 -4.83354e+07 1.62993 1.10118e+06 -4.72342e+07 730.105 730.105 730.105 2134.95 2865.05 2134.95 2865.05 2134.95 2865.05 3.89184e+08 0.1
Loop time of 41.5342 on 1 procs for 200000 steps with 1000 atoms

unfix 3

fix 4 all nvt temp 370000 300 100.0

run 100000
Generated 0 of 1 mixed pair_coeff terms from geometric mixing rule
Step          Temp          Press          PotEng        Density         KinEng         TotEng           Lx             Ly             Lz            Xlo            Xhi            Ylo            Yhi            Zlo            Zhi           Volume           Dt            Time           CPU           T/CPU          S/CPU         CPULeft
51405000   389549.26      1577.1073     -48328154       1.6299333      1160011.2     -47168142       730.10451      730.10451      730.10451      2134.9477      2865.0523      2134.9477      2865.0523      2134.9477      2865.0523      3.8918411e+08  0.1            5145000        0              0              0              0
Averages over the last 251 of 501 rows, steps 51455000 to 51505000:
Temp Press PotEng Density KinEng TotEng Lx Ly Lz Xlo Xhi Ylo Yhi Zlo Zhi Volume Dt
96573.7 602.868 -4.8734e+07 1.62993 287580 -4.84464e+07 730.105 730.105 730.105 2134.95 2865.05 2134.95 2865.05 2134.95 2865.05 3.89184e+08 0.1
Loop time of 20.638 on 1 procs for 100000 steps with 1000 atoms

unfix 4

fix 5 all npt temp 300 300 $(100.0*dt) iso 1.0 1.0 $(1000.0*dt)
fix 5 all npt temp 300 300 10 iso 1.0 1.0 $(1000.0*dt)
fix 5 all npt temp 300 300 10 iso 1.0 1.0 100

run 300000
Generated 0 of 1 mixed pair_coeff terms from geometric mixing rule
Step          Temp          Press          PotEng        Density         KinEng         TotEng           Lx             Ly             Lz            Xlo            Xhi            Ylo            Yhi            Zlo            Zhi           Volume           Dt            Time           CPU           T/CPU          S/CPU         CPULeft
51505000   5195.4554      235.02787     -48898325       1.6299333      15471.179     -48882854       730.10451      730.10451      730.10451      2134.9477      2865.0523      2134.9477      2865.0523      2134.9477      2865.0523      3.8918411e+08  0.1            5155000        0              0              0              0
Averages over the last 751 of 1501 rows, steps 51655000 to 51805000:
Temp Press PotEng Density KinEng TotEng Lx Ly Lz Xlo Xhi Ylo Yhi Zlo Zhi Volume Dt
306.184 1.0798 -4.89754e+07 1.62982 911.763 -4.89745e+07 730.121 730.121 730.121 2134.94 2865.06 2134.94 2865.06 2134.94 2865.06 3.8921e+08 0.1
Loop time of 70.2006 on 1 procs for 300000 steps with 1000 atoms

# run_style
run_style verlet

# write restart
write_restart ./pgnpmf/200800/equpmf74.res
System init for write_restart ...
Generated 0 of 1 mixed pair_coeff terms from geometric mixing rule
