LAMMPS (23 Jun 2022 - Update 1)
# Read restart
read_restart ./pgnpmf/200800/equpmf74.res
Reading restart file ...
  restart file = 23 Jun 2022, LAMMPS = 23 Jun 2022
  restoring atom style atomic from restart
  orthogonal box = (2135.0402 2135.0402 2135.0402) to (2864.9598 2864.9598 2864.9598)
  restoring pair style table from restart
  1000 atoms
  read_restart CPU = 0.003 seconds

# Settings

pair_style table spline 9941

pair_coeff 1 1 ./pgnpmf/N20.txt DE_GNP 75.6
pair_coeff 2 2 ./pgnpmf/N100.txt DE_GNP 115.92
pair_coeff 1 2 ./pgnpmf/mixed_potential.txt DE_GNP 95.66

#Neigh_list Calc Frequency

neigh_modify delay 0 every 1 check yes

# Saving Frequency (50 frames)

variable ts_save equal 5000

# Dump
#dump_modify 1 first no sort id
#dump 2 all cfg 50000 ./equilibration/trajectory/ovito/dumpgen.tens_*.cfg mass type xs ys zs fx fy fz

# thermo_style
thermo_style custom step temp press pe density ke etotal lx ly lz xlo xhi ylo yhi zlo zhi vol dt time cpu tpcpu spcpu cpuremain

# run info
timestep 0.1
thermo 200

# fix

fix 1 all momentum 1000 linear 1 1 1 angular
variable T equal 300
fix 2 all nvt temp 300 370000 100.0

run 100000
Generated 0 of 1 mixed pair_coeff terms from geometric mixing rule
Unused restart file global fix info:
  fix style: npt, fix ID: 5
  update every 1 steps, delay 0 steps, check yes
Step          Temp          Press          PotEng        Density         KinEng         TotEng           Lx             Ly             Lz            Xlo            Xhi            Ylo            Yhi            Zlo            Zhi           Volume           Dt            Time           CPU           T/CPU          S/CPU         CPULeft
51805000   305.00451      3.2787545     -49011597       1.631173       908.25135     -49010688       729.9195       729.9195       729.9195       2135.0402      2864.9598      2135.0402      2864.9598      2135.0402      2864.9598      3.8888832e+08  0.1            5185000        0              0              0              0
Averages over the last 251 of 501 rows, steps 51855000 to 51905000:
Temp Press PotEng Density KinEng TotEng Lx Ly Lz Xlo Xhi Ylo Yhi Zlo Zhi Volume Dt
277300 477.323 -4.88677e+07 1.63117 825753 -4.8042e+07 729.919 729.919 729.919 2135.04 2864.96 2135.04 2864.96 2135.04 2864.96 3.88888e+08 0.1
Loop time of 20.5242 on 1 procs for 100000 steps with 1000 atoms

unfix 2

fix 3 all nvt temp 370000 370000 $(100.0*dt) #iso 1.0 1.0 $(1000.0*dt)
fix 3 all nvt temp 370000 370000 10

run 200000
Generated 0 of 1 mixed pair_coeff terms from geometric mixing rule
Step          Temp          Press          PotEng        Density         KinEng         TotEng           Lx             Ly             Lz            Xlo            Xhi            Ylo            Yhi            Zlo            Zhi           Volume           Dt            Time           CPU           T/CPU          S/CPU         CPULeft
51905000   351811.97      893.76886     -48553605       1.631173       1047636       -47505969       729.9195       729.9195       729.9195       2135.0402      2864.9598      2135.0402      2864.9598      2135.0402      2864.9598      3.8888832e+08  0.1            5195000        0              0              0              0
Averages over the last 501 of 1001 rows, steps 52005000 to 52105000:
Temp Press PotEng Density KinEng TotEng Lx Ly Lz Xlo Xhi Ylo Yhi Zlo Zhi Volume Dt
370162 1416.9 -4.83388e+07 1.63117 1.10228e+06 -4.72366e+07 729.919 729.919 729.919 2135.04 2864.96 2135.04 2864.96 2135.04 2864.96 3.88888e+08 0.1
Loop time of 41.8082 on 1 procs for 200000 steps with 1000 atoms

unfix 3

fix 4 all nvt temp 370000 300 100.0

run 100000
Generated 0 of 1 mixed pair_coeff terms from geometric mixing rule
Step          Temp          Press          PotEng        Density         KinEng         TotEng           Lx             Ly             Lz            Xlo            Xhi            Ylo            Yhi            Zlo            Zhi           Volume           Dt            Time           CPU           T/CPU          S/CPU         CPULeft
52105000   356482.22      1456.8973     -48389742       1.631173       1061543.2     -47328199       729.9195       729.9195       729.9195       2135.0402      2864.9598      2135.0402      2864.9598      2135.0402      2864.9598      3.8888832e+08  0.1            5215000        0              0              0              0
Averages over the last 251 of 501 rows, steps 52155000 to 52205000:
Temp Press PotEng Density KinEng TotEng Lx Ly Lz Xlo Xhi Ylo Yhi Zlo Zhi Volume Dt
96545.6 467.847 -4.87534e+07 1.63117 287496 -4.84659e+07 729.919 729.919 729.919 2135.04 2864.96 2135.04 2864.96 2135.04 2864.96 3.88888e+08 0.1
Loop time of 20.8249 on 1 procs for 100000 steps with 1000 atoms

unfix 4

fix 5 all npt temp 300 300 $(100.0*dt) iso 1.0 1.0 $(1000.0*dt)
fix 5 all npt temp 300 300 10 iso 1.0 1.0 $(1000.0*dt)
fix 5 all npt temp 300 300 10 iso 1.0 1.0 100

run 300000
Generated 0 of 1 mixed pair_coeff terms from geometric mixing rule
Step          Temp          Press          PotEng        Density         KinEng         TotEng           Lx             Ly             Lz            Xlo            Xhi            Ylo            Yhi            Zlo            Zhi           Volume           Dt            Time           CPU           T/CPU          S/CPU         CPULeft
52205000   5181.4458      106.1494      -48881030       1.631173       15429.461     -48865601       729.9195       729.9195       729.9195       2135.0402      2864.9598      2135.0402      2864.9598      2135.0402      2864.9598      3.8888832e+08  0.1            5225000        0              0              0              0
Averages over the last 751 of 1501 rows, steps 52355000 to 52505000:
Temp Press PotEng Density KinEng TotEng Lx Ly Lz Xlo Xhi Ylo Yhi Zlo Zhi Volume Dt
306.773 1.0527 -4.90786e+07 1.63605 913.518 -4.90777e+07 729.194 729.194 729.194 2135.4 2864.6 2135.4 2864.6 2135.4 2864.6 3.8773e+08 0.1
Loop time of 71.2723 on 1 procs for 300000 steps with 1000 atoms

# run_style
run_style verlet

# write restart
write_restart ./pgnpmf/200800/equpmf75.res
System init for write_restart ...
Generated 0 of 1 mixed pair_coeff terms from geometric mixing rule
