LAMMPS (23 Jun 2022 - Update 1)
# Read restart
read_restart ./pgnpmf/200800/equpmf14.res
Reading restart file ...
  restart file = 23 Jun 2022, LAMMPS = 23 Jun 2022
  restoring atom style atomic from restart
  orthogonal box = (1816.6497 1816.6497 1816.6497) to (3183.3503 3183.3503 3183.3503)
  restoring pair style table from restart
  1000 atoms
  read_restart CPU = 0.039 seconds

# Settings

pair_style table spline 9941

pair_coeff 1 1 ./pgnpmf/N20.txt DE_GNP 75.6
pair_coeff 2 2 ./pgnpmf/N100.txt DE_GNP 115.92
pair_coeff 1 2 ./pgnpmf/mixed_potential.txt DE_GNP 95.66

#Neigh_list Calc Frequency

neigh_modify delay 0 every 1 check yes

# Saving Frequency (50 frames)

variable ts_save equal 5000

# Dump
#dump_modify 1 first no sort id
#dump 2 all cfg 50000 ./equilibration/trajectory/ovito/dumpgen.tens_*.cfg mass type xs ys zs fx fy fz

# thermo_style
thermo_style custom step temp press pe density ke etotal lx ly lz xlo xhi ylo yhi zlo zhi vol dt time cpu tpcpu spcpu cpuremain

# run info
timestep 0.1
thermo 200

# fix

fix 1 all momentum 1000 linear 1 1 1 angular
variable T equal 300
fix 2 all nvt temp 300 370000 100.0

run 100000
Generated 0 of 1 mixed pair_coeff terms from geometric mixing rule
Unused restart file global fix info:
  fix style: npt, fix ID: 5
  update every 1 steps, delay 0 steps, check yes
Step          Temp          Press          PotEng        Density         KinEng         TotEng           Lx             Ly             Lz            Xlo            Xhi            Ylo            Yhi            Zlo            Zhi           Volume           Dt            Time           CPU           T/CPU          S/CPU         CPULeft
9805000   311.35606      1.1142517     -20005467       0.24848763     927.16518     -20004540       1366.7006      1366.7006      1366.7006      1816.6497      3183.3503      1816.6497      3183.3503      1816.6497      3183.3503      2.5528198e+09  0.1            985000         0              0              0              0
Averages over the last 251 of 501 rows, steps 9855000 to 9905000:
Temp Press PotEng Density KinEng TotEng Lx Ly Lz Xlo Xhi Ylo Yhi Zlo Zhi Volume Dt
277053 -17.8631 -2.0172e+07 0.248488 825017 -1.9347e+07 1366.7 1366.7 1366.7 1816.65 3183.35 1816.65 3183.35 1816.65 3183.35 2.55282e+09 0.1
Loop time of 8.53027 on 8 procs for 100000 steps with 1000 atoms

unfix 2

fix 3 all nvt temp 370000 370000 $(100.0*dt) #iso 1.0 1.0 $(1000.0*dt)
fix 3 all nvt temp 370000 370000 10

run 200000
Generated 0 of 1 mixed pair_coeff terms from geometric mixing rule
Step          Temp          Press          PotEng        Density         KinEng         TotEng           Lx             Ly             Lz            Xlo            Xhi            Ylo            Yhi            Zlo            Zhi           Volume           Dt            Time           CPU           T/CPU          S/CPU         CPULeft
9905000   360354.03      29.197053     -20196515       0.24848763     1073072.8     -19123443       1366.7006      1366.7006      1366.7006      1816.6497      3183.3503      1816.6497      3183.3503      1816.6497      3183.3503      2.5528198e+09  0.1            995000         0              0              0              0
Averages over the last 501 of 1001 rows, steps 10005000 to 10105000:
Temp Press PotEng Density KinEng TotEng Lx Ly Lz Xlo Xhi Ylo Yhi Zlo Zhi Volume Dt
369790 22.7725 -2.03292e+07 0.248488 1.10117e+06 -1.9228e+07 1366.7 1366.7 1366.7 1816.65 3183.35 1816.65 3183.35 1816.65 3183.35 2.55282e+09 0.1
Loop time of 17.1595 on 8 procs for 200000 steps with 1000 atoms

unfix 3

fix 4 all nvt temp 370000 300 100.0

run 100000
Generated 0 of 1 mixed pair_coeff terms from geometric mixing rule
Step          Temp          Press          PotEng        Density         KinEng         TotEng           Lx             Ly             Lz            Xlo            Xhi            Ylo            Yhi            Zlo            Zhi           Volume           Dt            Time           CPU           T/CPU          S/CPU         CPULeft
10105000   367106.26      16.6701       -20185244       0.24848763     1093179.8     -19092064       1366.7006      1366.7006      1366.7006      1816.6497      3183.3503      1816.6497      3183.3503      1816.6497      3183.3503      2.5528198e+09  0.1            1015000        0              0              0              0
Averages over the last 251 of 501 rows, steps 10155000 to 10205000:
Temp Press PotEng Density KinEng TotEng Lx Ly Lz Xlo Xhi Ylo Yhi Zlo Zhi Volume Dt
95138.1 -59.0699 -2.0068e+07 0.248488 283305 -1.97847e+07 1366.7 1366.7 1366.7 1816.65 3183.35 1816.65 3183.35 1816.65 3183.35 2.55282e+09 0.1
Loop time of 8.62088 on 8 procs for 100000 steps with 1000 atoms

unfix 4

fix 5 all npt temp 300 300 $(100.0*dt) iso 1.0 1.0 $(1000.0*dt)
fix 5 all npt temp 300 300 10 iso 1.0 1.0 $(1000.0*dt)
fix 5 all npt temp 300 300 10 iso 1.0 1.0 100

run 300000
Generated 0 of 1 mixed pair_coeff terms from geometric mixing rule
Step          Temp          Press          PotEng        Density         KinEng         TotEng           Lx             Ly             Lz            Xlo            Xhi            Ylo            Yhi            Zlo            Zhi           Volume           Dt            Time           CPU           T/CPU          S/CPU         CPULeft
10205000   4856.8169     -94.637174     -20210536       0.24848763     14462.772     -20196073       1366.7006      1366.7006      1366.7006      1816.6497      3183.3503      1816.6497      3183.3503      1816.6497      3183.3503      2.5528198e+09  0.1            1025000        0              0              0              0
Averages over the last 751 of 1501 rows, steps 10355000 to 10505000:
Temp Press PotEng Density KinEng TotEng Lx Ly Lz Xlo Xhi Ylo Yhi Zlo Zhi Volume Dt
311.752 0.987322 -2.10142e+07 0.264988 928.345 -2.10132e+07 1337.73 1337.73 1337.73 1831.14 3168.86 1831.14 3168.86 1831.14 3168.86 2.3939e+09 0.1
Loop time of 32.4113 on 8 procs for 300000 steps with 1000 atoms

# run_style
run_style verlet

# write restart
write_restart ./pgnpmf/200800/equpmf15.res
System init for write_restart ...
Generated 0 of 1 mixed pair_coeff terms from geometric mixing rule
