LAMMPS (23 Jun 2022 - Update 1)
# Read restart
read_restart ./pgnpmf/200800/equpmf13.res
Reading restart file ...
  restart file = 23 Jun 2022, LAMMPS = 23 Jun 2022
  restoring atom style atomic from restart
  orthogonal box = (1798.0417 1798.0417 1798.0417) to (3201.9583 3201.9583 3201.9583)
  restoring pair style table from restart
  1000 atoms
  read_restart CPU = 0.034 seconds

# Settings

pair_style table spline 9941

pair_coeff 1 1 ./pgnpmf/N20.txt DE_GNP 75.6
pair_coeff 2 2 ./pgnpmf/N100.txt DE_GNP 115.92
pair_coeff 1 2 ./pgnpmf/mixed_potential.txt DE_GNP 95.66

#Neigh_list Calc Frequency

neigh_modify delay 0 every 1 check yes

# Saving Frequency (50 frames)

variable ts_save equal 5000

# Dump
#dump_modify 1 first no sort id
#dump 2 all cfg 50000 ./equilibration/trajectory/ovito/dumpgen.tens_*.cfg mass type xs ys zs fx fy fz

# thermo_style
thermo_style custom step temp press pe density ke etotal lx ly lz xlo xhi ylo yhi zlo zhi vol dt time cpu tpcpu spcpu cpuremain

# run info
timestep 0.1
thermo 200

# fix

fix 1 all momentum 1000 linear 1 1 1 angular
variable T equal 300
fix 2 all nvt temp 300 370000 100.0

run 100000
Generated 0 of 1 mixed pair_coeff terms from geometric mixing rule
Unused restart file global fix info:
  fix style: npt, fix ID: 5
  update every 1 steps, delay 0 steps, check yes
Step          Temp          Press          PotEng        Density         KinEng         TotEng           Lx             Ly             Lz            Xlo            Xhi            Ylo            Yhi            Zlo            Zhi           Volume           Dt            Time           CPU           T/CPU          S/CPU         CPULeft
9105000   311.84749      1.003933      -18055868       0.22924563     928.62856     -18054939       1403.9165      1403.9165      1403.9165      1798.0417      3201.9583      1798.0417      3201.9583      1798.0417      3201.9583      2.7670937e+09  0.1            915000         0              0              0              0
Averages over the last 251 of 501 rows, steps 9155000 to 9205000:
Temp Press PotEng Density KinEng TotEng Lx Ly Lz Xlo Xhi Ylo Yhi Zlo Zhi Volume Dt
276641 -18.4464 -1.8212e+07 0.229246 823790 -1.73882e+07 1403.92 1403.92 1403.92 1798.04 3201.96 1798.04 3201.96 1798.04 3201.96 2.76709e+09 0.1
Loop time of 8.25147 on 8 procs for 100000 steps with 1000 atoms

unfix 2

fix 3 all nvt temp 370000 370000 $(100.0*dt) #iso 1.0 1.0 $(1000.0*dt)
fix 3 all nvt temp 370000 370000 10

run 200000
Generated 0 of 1 mixed pair_coeff terms from geometric mixing rule
Step          Temp          Press          PotEng        Density         KinEng         TotEng           Lx             Ly             Lz            Xlo            Xhi            Ylo            Yhi            Zlo            Zhi           Volume           Dt            Time           CPU           T/CPU          S/CPU         CPULeft
9205000   371062.69      27.263802     -18324394       0.22924563     1104961.3     -17219432       1403.9165      1403.9165      1403.9165      1798.0417      3201.9583      1798.0417      3201.9583      1798.0417      3201.9583      2.7670937e+09  0.1            925000         0              0              0              0
Averages over the last 501 of 1001 rows, steps 9305000 to 9405000:
Temp Press PotEng Density KinEng TotEng Lx Ly Lz Xlo Xhi Ylo Yhi Zlo Zhi Volume Dt
370429 22.3116 -1.88375e+07 0.229246 1.10308e+06 -1.77344e+07 1403.92 1403.92 1403.92 1798.04 3201.96 1798.04 3201.96 1798.04 3201.96 2.76709e+09 0.1
Loop time of 16.7506 on 8 procs for 200000 steps with 1000 atoms

unfix 3

fix 4 all nvt temp 370000 300 100.0

run 100000
Generated 0 of 1 mixed pair_coeff terms from geometric mixing rule
Step          Temp          Press          PotEng        Density         KinEng         TotEng           Lx             Ly             Lz            Xlo            Xhi            Ylo            Yhi            Zlo            Zhi           Volume           Dt            Time           CPU           T/CPU          S/CPU         CPULeft
9405000   376368.44      13.261255     -18772928       0.22924563     1120760.9     -17652167       1403.9165      1403.9165      1403.9165      1798.0417      3201.9583      1798.0417      3201.9583      1798.0417      3201.9583      2.7670937e+09  0.1            945000         0              0              0              0
Averages over the last 251 of 501 rows, steps 9455000 to 9505000:
Temp Press PotEng Density KinEng TotEng Lx Ly Lz Xlo Xhi Ylo Yhi Zlo Zhi Volume Dt
94924 -58.6291 -1.88597e+07 0.229246 282667 -1.8577e+07 1403.92 1403.92 1403.92 1798.04 3201.96 1798.04 3201.96 1798.04 3201.96 2.76709e+09 0.1
Loop time of 8.32681 on 8 procs for 100000 steps with 1000 atoms

unfix 4

fix 5 all npt temp 300 300 $(100.0*dt) iso 1.0 1.0 $(1000.0*dt)
fix 5 all npt temp 300 300 10 iso 1.0 1.0 $(1000.0*dt)
fix 5 all npt temp 300 300 10 iso 1.0 1.0 100

run 300000
Generated 0 of 1 mixed pair_coeff terms from geometric mixing rule
Step          Temp          Press          PotEng        Density         KinEng         TotEng           Lx             Ly             Lz            Xlo            Xhi            Ylo            Yhi            Zlo            Zhi           Volume           Dt            Time           CPU           T/CPU          S/CPU         CPULeft
9505000   4834.7974     -84.585477     -18917165       0.22924563     14397.201     -18902768       1403.9165      1403.9165      1403.9165      1798.0417      3201.9583      1798.0417      3201.9583      1798.0417      3201.9583      2.7670937e+09  0.1            955000         0              0              0              0
Averages over the last 751 of 1501 rows, steps 9655000 to 9805000:
Temp Press PotEng Density KinEng TotEng Lx Ly Lz Xlo Xhi Ylo Yhi Zlo Zhi Volume Dt
312.754 1.00102 -1.98709e+07 0.246486 931.329 -1.987e+07 1370.4 1370.4 1370.4 1814.8 3185.2 1814.8 3185.2 1814.8 3185.2 2.57361e+09 0.1
Loop time of 31.7069 on 8 procs for 300000 steps with 1000 atoms

# run_style
run_style verlet

# write restart
write_restart ./pgnpmf/200800/equpmf14.res
System init for write_restart ...
Generated 0 of 1 mixed pair_coeff terms from geometric mixing rule
