LAMMPS (23 Jun 2022 - Update 1)
# Read restart
read_restart ./pgnpmf/200800/equpmf4.res
Reading restart file ...
  restart file = 23 Jun 2022, LAMMPS = 23 Jun 2022
  restoring atom style atomic from restart
  orthogonal box = (1396.4363 1396.4363 1396.4363) to (3603.5637 3603.5637 3603.5637)
  restoring pair style table from restart
  1000 atoms
  read_restart CPU = 0.049 seconds

# Settings

pair_style table spline 9941

pair_coeff 1 1 ./pgnpmf/N20.txt DE_GNP 75.6
pair_coeff 2 2 ./pgnpmf/N100.txt DE_GNP 115.92
pair_coeff 1 2 ./pgnpmf/mixed_potential.txt DE_GNP 95.66

#Neigh_list Calc Frequency

neigh_modify delay 0 every 1 check yes

# Saving Frequency (50 frames)

variable ts_save equal 5000

# Dump
#dump_modify 1 first no sort id
#dump 2 all cfg 50000 ./equilibration/trajectory/ovito/dumpgen.tens_*.cfg mass type xs ys zs fx fy fz

# thermo_style
thermo_style custom step temp press pe density ke etotal lx ly lz xlo xhi ylo yhi zlo zhi vol dt time cpu tpcpu spcpu cpuremain

# run info
timestep 0.1
thermo 200

# fix

fix 1 all momentum 1000 linear 1 1 1 angular
variable T equal 300
fix 2 all nvt temp 300 370000 100.0

run 100000
Generated 0 of 1 mixed pair_coeff terms from geometric mixing rule
Unused restart file global fix info:
  fix style: npt, fix ID: 5
  update every 1 steps, delay 0 steps, check yes
Step          Temp          Press          PotEng        Density         KinEng         TotEng           Lx             Ly             Lz            Xlo            Xhi            Ylo            Yhi            Zlo            Zhi           Volume           Dt            Time           CPU           T/CPU          S/CPU         CPULeft
2805000   311.65884      0.99467147    -4180609.3      0.058998737    928.06681     -4179681.3      2207.1274      2207.1274      2207.1274      1396.4363      3603.5637      1396.4363      3603.5637      1396.4363      3603.5637      1.0751826e+10  0.1            285000         0              0              0              0
Averages over the last 251 of 501 rows, steps 2855000 to 2905000:
Temp Press PotEng Density KinEng TotEng Lx Ly Lz Xlo Xhi Ylo Yhi Zlo Zhi Volume Dt
277375 3.37402 -4.36341e+06 0.0589987 825976 -3.53744e+06 2207.13 2207.13 2207.13 1396.44 3603.56 1396.44 3603.56 1396.44 3603.56 1.07518e+10 0.1
Loop time of 5.68578 on 8 procs for 100000 steps with 1000 atoms

unfix 2

fix 3 all nvt temp 370000 370000 $(100.0*dt) #iso 1.0 1.0 $(1000.0*dt)
fix 3 all nvt temp 370000 370000 10

run 200000
Generated 0 of 1 mixed pair_coeff terms from geometric mixing rule
Step          Temp          Press          PotEng        Density         KinEng         TotEng           Lx             Ly             Lz            Xlo            Xhi            Ylo            Yhi            Zlo            Zhi           Volume           Dt            Time           CPU           T/CPU          S/CPU         CPULeft
2905000   370661.52      6.1692656     -4410699.5      0.058998737    1103766.7     -3306932.7      2207.1274      2207.1274      2207.1274      1396.4363      3603.5637      1396.4363      3603.5637      1396.4363      3603.5637      1.0751826e+10  0.1            295000         0              0              0              0
Averages over the last 501 of 1001 rows, steps 3005000 to 3105000:
Temp Press PotEng Density KinEng TotEng Lx Ly Lz Xlo Xhi Ylo Yhi Zlo Zhi Volume Dt
370005 5.35843 -3.98607e+06 0.0589987 1.10181e+06 -2.88426e+06 2207.13 2207.13 2207.13 1396.44 3603.56 1396.44 3603.56 1396.44 3603.56 1.07518e+10 0.1
Loop time of 11.1128 on 8 procs for 200000 steps with 1000 atoms

unfix 3

fix 4 all nvt temp 370000 300 100.0

run 100000
Generated 0 of 1 mixed pair_coeff terms from geometric mixing rule
Step          Temp          Press          PotEng        Density         KinEng         TotEng           Lx             Ly             Lz            Xlo            Xhi            Ylo            Yhi            Zlo            Zhi           Volume           Dt            Time           CPU           T/CPU          S/CPU         CPULeft
3105000   374444.59      3.4884027     -3852544.3      0.058998737    1115032.1     -2737512.3      2207.1274      2207.1274      2207.1274      1396.4363      3603.5637      1396.4363      3603.5637      1396.4363      3603.5637      1.0751826e+10  0.1            315000         0              0              0              0
Averages over the last 251 of 501 rows, steps 3155000 to 3205000:
Temp Press PotEng Density KinEng TotEng Lx Ly Lz Xlo Xhi Ylo Yhi Zlo Zhi Volume Dt
94801.8 -2.37275 -3.48237e+06 0.0589987 282304 -3.20006e+06 2207.13 2207.13 2207.13 1396.44 3603.56 1396.44 3603.56 1396.44 3603.56 1.07518e+10 0.1
Loop time of 5.38848 on 8 procs for 100000 steps with 1000 atoms

unfix 4

fix 5 all npt temp 300 300 $(100.0*dt) iso 1.0 1.0 $(1000.0*dt)
fix 5 all npt temp 300 300 10 iso 1.0 1.0 $(1000.0*dt)
fix 5 all npt temp 300 300 10 iso 1.0 1.0 100

run 300000
Generated 0 of 1 mixed pair_coeff terms from geometric mixing rule
Step          Temp          Press          PotEng        Density         KinEng         TotEng           Lx             Ly             Lz            Xlo            Xhi            Ylo            Yhi            Zlo            Zhi           Volume           Dt            Time           CPU           T/CPU          S/CPU         CPULeft
3205000   4326.362      -4.975545      -3509716.3      0.058998737    12883.167     -3496833.2      2207.1274      2207.1274      2207.1274      1396.4363      3603.5637      1396.4363      3603.5637      1396.4363      3603.5637      1.0751826e+10  0.1            325000         0              0              0              0
Averages over the last 751 of 1501 rows, steps 3355000 to 3505000:
Temp Press PotEng Density KinEng TotEng Lx Ly Lz Xlo Xhi Ylo Yhi Zlo Zhi Volume Dt
311.639 1.00062 -4.96594e+06 0.0728115 928.007 -4.96501e+06 2057.84 2057.84 2057.84 1471.08 3528.92 1471.08 3528.92 1471.08 3528.92 8.71541e+09 0.1
Loop time of 23.9047 on 8 procs for 300000 steps with 1000 atoms

# run_style
run_style verlet

# write restart
write_restart ./pgnpmf/200800/equpmf5.res
System init for write_restart ...
Generated 0 of 1 mixed pair_coeff terms from geometric mixing rule
