LAMMPS (23 Jun 2022 - Update 1)
# Read restart
read_restart ./pgnpmf/200800/equpmf27.res
Reading restart file ...
  restart file = 23 Jun 2022, LAMMPS = 23 Jun 2022
  restoring atom style atomic from restart
  orthogonal box = (1980.9403 1980.9403 1980.9403) to (3019.0597 3019.0597 3019.0597)
  restoring pair style table from restart
  1000 atoms
  read_restart CPU = 0.020 seconds

# Settings

pair_style table spline 9941

pair_coeff 1 1 ./pgnpmf/N20.txt DE_GNP 75.6
pair_coeff 2 2 ./pgnpmf/N100.txt DE_GNP 115.92
pair_coeff 1 2 ./pgnpmf/mixed_potential.txt DE_GNP 95.66

#Neigh_list Calc Frequency

neigh_modify delay 0 every 1 check yes

# Saving Frequency (50 frames)

variable ts_save equal 5000

# Dump
#dump_modify 1 first no sort id
#dump 2 all cfg 50000 ./equilibration/trajectory/ovito/dumpgen.tens_*.cfg mass type xs ys zs fx fy fz

# thermo_style
thermo_style custom step temp press pe density ke etotal lx ly lz xlo xhi ylo yhi zlo zhi vol dt time cpu tpcpu spcpu cpuremain

# run info
timestep 0.1
thermo 200

# fix

fix 1 all momentum 1000 linear 1 1 1 angular
variable T equal 300
fix 2 all nvt temp 300 370000 100.0

run 100000
Generated 0 of 1 mixed pair_coeff terms from geometric mixing rule
Unused restart file global fix info:
  fix style: npt, fix ID: 5
  update every 1 steps, delay 0 steps, check yes
Step          Temp          Press          PotEng        Density         KinEng         TotEng           Lx             Ly             Lz            Xlo            Xhi            Ylo            Yhi            Zlo            Zhi           Volume           Dt            Time           CPU           T/CPU          S/CPU         CPULeft
18905000   310.40322      2.2711511     -33139616       0.56699999     924.3278      -33138691       1038.1194      1038.1194      1038.1194      1980.9403      3019.0597      1980.9403      3019.0597      1980.9403      3019.0597      1.1187727e+09  0.1            1895000        0              0              0              0
Averages over the last 251 of 501 rows, steps 18955000 to 19005000:
Temp Press PotEng Density KinEng TotEng Lx Ly Lz Xlo Xhi Ylo Yhi Zlo Zhi Volume Dt
277454 7.17613 -3.34477e+07 0.567 826211 -3.26215e+07 1038.12 1038.12 1038.12 1980.94 3019.06 1980.94 3019.06 1980.94 3019.06 1.11877e+09 0.1
Loop time of 8.36811 on 8 procs for 100000 steps with 1000 atoms

unfix 2

fix 3 all nvt temp 370000 370000 $(100.0*dt) #iso 1.0 1.0 $(1000.0*dt)
fix 3 all nvt temp 370000 370000 10

run 200000
Generated 0 of 1 mixed pair_coeff terms from geometric mixing rule
Step          Temp          Press          PotEng        Density         KinEng         TotEng           Lx             Ly             Lz            Xlo            Xhi            Ylo            Yhi            Zlo            Zhi           Volume           Dt            Time           CPU           T/CPU          S/CPU         CPULeft
19005000   368932.17      160.04448     -33425736       0.56699999     1098617       -32327119       1038.1194      1038.1194      1038.1194      1980.9403      3019.0597      1980.9403      3019.0597      1980.9403      3019.0597      1.1187727e+09  0.1            1905000        0              0              0              0
Averages over the last 501 of 1001 rows, steps 19105000 to 19205000:
Temp Press PotEng Density KinEng TotEng Lx Ly Lz Xlo Xhi Ylo Yhi Zlo Zhi Volume Dt
369889 40.1985 -3.29009e+07 0.567 1.10147e+06 -3.17994e+07 1038.12 1038.12 1038.12 1980.94 3019.06 1980.94 3019.06 1980.94 3019.06 1.11877e+09 0.1
Loop time of 16.8484 on 8 procs for 200000 steps with 1000 atoms

unfix 3

fix 4 all nvt temp 370000 300 100.0

run 100000
Generated 0 of 1 mixed pair_coeff terms from geometric mixing rule
Step          Temp          Press          PotEng        Density         KinEng         TotEng           Lx             Ly             Lz            Xlo            Xhi            Ylo            Yhi            Zlo            Zhi           Volume           Dt            Time           CPU           T/CPU          S/CPU         CPULeft
19205000   382232.21     -23.836916     -32629926       0.56699999     1138222.3     -31491704       1038.1194      1038.1194      1038.1194      1980.9403      3019.0597      1980.9403      3019.0597      1980.9403      3019.0597      1.1187727e+09  0.1            1925000        0              0              0              0
Averages over the last 251 of 501 rows, steps 19255000 to 19305000:
Temp Press PotEng Density KinEng TotEng Lx Ly Lz Xlo Xhi Ylo Yhi Zlo Zhi Volume Dt
95942 -233.231 -3.25931e+07 0.567 285699 -3.23074e+07 1038.12 1038.12 1038.12 1980.94 3019.06 1980.94 3019.06 1980.94 3019.06 1.11877e+09 0.1
Loop time of 8.19544 on 8 procs for 100000 steps with 1000 atoms

unfix 4

fix 5 all npt temp 300 300 $(100.0*dt) iso 1.0 1.0 $(1000.0*dt)
fix 5 all npt temp 300 300 10 iso 1.0 1.0 $(1000.0*dt)
fix 5 all npt temp 300 300 10 iso 1.0 1.0 100

run 300000
Generated 0 of 1 mixed pair_coeff terms from geometric mixing rule
Step          Temp          Press          PotEng        Density         KinEng         TotEng           Lx             Ly             Lz            Xlo            Xhi            Ylo            Yhi            Zlo            Zhi           Volume           Dt            Time           CPU           T/CPU          S/CPU         CPULeft
19305000   5017.7732     -310.55149     -32755148       0.56699999     14942.072     -32740206       1038.1194      1038.1194      1038.1194      1980.9403      3019.0597      1980.9403      3019.0597      1980.9403      3019.0597      1.1187727e+09  0.1            1935000        0              0              0              0
Averages over the last 751 of 1501 rows, steps 19455000 to 19605000:
Temp Press PotEng Density KinEng TotEng Lx Ly Lz Xlo Xhi Ylo Yhi Zlo Zhi Volume Dt
312.286 1.02165 -3.35363e+07 0.595692 929.935 -3.35354e+07 1021.18 1021.18 1021.18 1989.41 3010.59 1989.41 3010.59 1989.41 3010.59 1.06489e+09 0.1
Loop time of 30.2128 on 8 procs for 300000 steps with 1000 atoms

# run_style
run_style verlet

# write restart
write_restart ./pgnpmf/200800/equpmf28.res
System init for write_restart ...
Generated 0 of 1 mixed pair_coeff terms from geometric mixing rule
