LAMMPS (23 Jun 2022 - Update 1)
# Read restart
read_restart ./pgnpmf/200800/equpmf51.res
Reading restart file ...
  restart file = 23 Jun 2022, LAMMPS = 23 Jun 2022
  restoring atom style atomic from restart
  orthogonal box = (2123.5646 2123.5646 2123.5646) to (2876.4354 2876.4354 2876.4354)
  restoring pair style table from restart
  1000 atoms
  read_restart CPU = 0.008 seconds

# Settings

pair_style table spline 9941

pair_coeff 1 1 ./pgnpmf/N20.txt DE_GNP 75.6
pair_coeff 2 2 ./pgnpmf/N100.txt DE_GNP 115.92
pair_coeff 1 2 ./pgnpmf/mixed_potential.txt DE_GNP 95.66

#Neigh_list Calc Frequency

neigh_modify delay 0 every 1 check yes

# Saving Frequency (50 frames)

variable ts_save equal 5000

# Dump
#dump_modify 1 first no sort id
#dump 2 all cfg 50000 ./equilibration/trajectory/ovito/dumpgen.tens_*.cfg mass type xs ys zs fx fy fz

# thermo_style
thermo_style custom step temp press pe density ke etotal lx ly lz xlo xhi ylo yhi zlo zhi vol dt time cpu tpcpu spcpu cpuremain

# run info
timestep 0.1
thermo 200

# fix

fix 1 all momentum 1000 linear 1 1 1 angular
variable T equal 300
fix 2 all nvt temp 300 370000 100.0

run 100000
Generated 0 of 1 mixed pair_coeff terms from geometric mixing rule
Unused restart file global fix info:
  fix style: npt, fix ID: 5
  update every 1 steps, delay 0 steps, check yes
Step          Temp          Press          PotEng        Density         KinEng         TotEng           Lx             Ly             Lz            Xlo            Xhi            Ylo            Yhi            Zlo            Zhi           Volume           Dt            Time           CPU           T/CPU          S/CPU         CPULeft
35705000   305.88429      7.0243268     -47149033       1.486495       910.87117     -47148122       752.87087      752.87087      752.87087      2123.5646      2876.4354      2123.5646      2876.4354      2123.5646      2876.4354      4.2673816e+08  0.1            3575000        0              0              0              0
Averages over the last 251 of 501 rows, steps 35755000 to 35805000:
Temp Press PotEng Density KinEng TotEng Lx Ly Lz Xlo Xhi Ylo Yhi Zlo Zhi Volume Dt
276862 683.999 -4.70772e+07 1.48649 824446 -4.62527e+07 752.871 752.871 752.871 2123.56 2876.44 2123.56 2876.44 2123.56 2876.44 4.26738e+08 0.1
Loop time of 6.08341 on 8 procs for 100000 steps with 1000 atoms

unfix 2

fix 3 all nvt temp 370000 370000 $(100.0*dt) #iso 1.0 1.0 $(1000.0*dt)
fix 3 all nvt temp 370000 370000 10

run 200000
Generated 0 of 1 mixed pair_coeff terms from geometric mixing rule
Step          Temp          Press          PotEng        Density         KinEng         TotEng           Lx             Ly             Lz            Xlo            Xhi            Ylo            Yhi            Zlo            Zhi           Volume           Dt            Time           CPU           T/CPU          S/CPU         CPULeft
35805000   367772.83      1136.2757     -46986481       1.486495       1095164.7     -45891316       752.87087      752.87087      752.87087      2123.5646      2876.4354      2123.5646      2876.4354      2123.5646      2876.4354      4.2673816e+08  0.1            3585000        0              0              0              0
Averages over the last 501 of 1001 rows, steps 35905000 to 36005000:
Temp Press PotEng Density KinEng TotEng Lx Ly Lz Xlo Xhi Ylo Yhi Zlo Zhi Volume Dt
370017 1250.44 -4.64622e+07 1.48649 1.10185e+06 -4.53604e+07 752.871 752.871 752.871 2123.56 2876.44 2123.56 2876.44 2123.56 2876.44 4.26738e+08 0.1
Loop time of 12.4387 on 8 procs for 200000 steps with 1000 atoms

unfix 3

fix 4 all nvt temp 370000 300 100.0

run 100000
Generated 0 of 1 mixed pair_coeff terms from geometric mixing rule
Step          Temp          Press          PotEng        Density         KinEng         TotEng           Lx             Ly             Lz            Xlo            Xhi            Ylo            Yhi            Zlo            Zhi           Volume           Dt            Time           CPU           T/CPU          S/CPU         CPULeft
36005000   370283.55      1019.0753     -46313042       1.486495       1102641.2     -45210401       752.87087      752.87087      752.87087      2123.5646      2876.4354      2123.5646      2876.4354      2123.5646      2876.4354      4.2673816e+08  0.1            3605000        0              0              0              0
Averages over the last 251 of 501 rows, steps 36055000 to 36105000:
Temp Press PotEng Density KinEng TotEng Lx Ly Lz Xlo Xhi Ylo Yhi Zlo Zhi Volume Dt
96215.5 -24.2546 -4.67058e+07 1.48649 286513 -4.64193e+07 752.871 752.871 752.871 2123.56 2876.44 2123.56 2876.44 2123.56 2876.44 4.26738e+08 0.1
Loop time of 6.08382 on 8 procs for 100000 steps with 1000 atoms

unfix 4

fix 5 all npt temp 300 300 $(100.0*dt) iso 1.0 1.0 $(1000.0*dt)
fix 5 all npt temp 300 300 10 iso 1.0 1.0 $(1000.0*dt)
fix 5 all npt temp 300 300 10 iso 1.0 1.0 100

run 300000
Generated 0 of 1 mixed pair_coeff terms from geometric mixing rule
Step          Temp          Press          PotEng        Density         KinEng         TotEng           Lx             Ly             Lz            Xlo            Xhi            Ylo            Yhi            Zlo            Zhi           Volume           Dt            Time           CPU           T/CPU          S/CPU         CPULeft
36105000   5155.3831     -343.30423     -46785141       1.486495       15351.851     -46769790       752.87087      752.87087      752.87087      2123.5646      2876.4354      2123.5646      2876.4354      2123.5646      2876.4354      4.2673816e+08  0.1            3615000        0              0              0              0
Averages over the last 751 of 1501 rows, steps 36255000 to 36405000:
Temp Press PotEng Density KinEng TotEng Lx Ly Lz Xlo Xhi Ylo Yhi Zlo Zhi Volume Dt
307.524 1.18575 -4.71984e+07 1.50743 915.753 -4.71975e+07 749.37 749.37 749.37 2125.32 2874.68 2125.32 2874.68 2125.32 2874.68 4.20812e+08 0.1
Loop time of 22.22 on 8 procs for 300000 steps with 1000 atoms

# run_style
run_style verlet

# write restart
write_restart ./pgnpmf/200800/equpmf52.res
System init for write_restart ...
Generated 0 of 1 mixed pair_coeff terms from geometric mixing rule
