LAMMPS (23 Jun 2022 - Update 1)

# Init #
dimension   3
boundary    p p p
units       real
atom_style  atomic

# Atom Definition #
read_data ./pgnpmf/8020/dat8020.dat
Reading data file ...
  orthogonal box = (-100 -100 -100) to (4100 4100 4100)
  reading atoms ...
  1000 atoms

# Settings #
pair_style table spline 9941

pair_coeff 1 1 ./pgnpmf/N20.txt DE_GNP 75.6
pair_coeff 2 2 ./pgnpmf/N100.txt DE_GNP 115.92
pair_coeff 1 2 ./pgnpmf/mixed_potential.txt DE_GNP 95.66

# Neighbor list calc frequency #
neigh_modify delay 0 every 1 check yes

# Saving frequency #
variable ts_save equal floor(5000*0.01)

# Dump #
dump 1 all custom 10000 ./pgnpmf/8020/generation/trajectory/trajectory_1_1.gen.custom type x y z ix iy iz
dump_modify 1 first no sort id
dump 2 all cfg 10000 ./pgnpmf/8020/generation/trajectory/dumpgen.tens_*.cfg mass type xs ys zs fx fy fz
dump_modify 2 element N20 N100

# Fix #
fix 1 all momentum 1000 linear 1 1 1 angular

variable T equal 300

# Velocity #
velocity all create 300 57138 mom yes rot yes dist gaussian

fix 2 all nvt temp 300 370000 100.0
run 5000
Generated 0 of 1 mixed pair_coeff terms from geometric mixing rule
  update every 1 steps, delay 0 steps, check yes
Step          Temp          E_pair         E_mol          TotEng         Press
0   300            0              0              893.34877      0.00055119596
Loop time of 0.0665967 on 4 procs for 5000 steps with 1000 atoms

unfix 2

fix 3 all nvt temp 370000 370000 100.0
run 500000
Generated 0 of 1 mixed pair_coeff terms from geometric mixing rule
Step          Temp          E_pair         E_mol          TotEng         Press
5000   357461.68      0              0              1064459.8      0.65677144
Loop time of 8.19662 on 4 procs for 500000 steps with 1000 atoms

unfix 3

fix 4 all nvt temp 370000 3700000 $(100*dt)
fix 4 all nvt temp 370000 3700000 100
run 500000
Generated 0 of 1 mixed pair_coeff terms from geometric mixing rule
Step          Temp          E_pair         E_mol          TotEng         Press
505000   368307.6      -97709.375      0              999047.75      0.65460123
Loop time of 9.03587 on 4 procs for 500000 steps with 1000 atoms

unfix 4

fix 5 all nvt temp 3700000 300 100.0
run 5000
Generated 0 of 1 mixed pair_coeff terms from geometric mixing rule
Step          Temp          E_pair         E_mol          TotEng         Press
1005000   3699056.8     -27114.163      0              10988045       6.8197044
Loop time of 0.0906524 on 4 procs for 5000 steps with 1000 atoms

# Thermo #
thermo_style custom step temp press pe ke etotal epair lx ly lz xlo xhi ylo yhi zlo zhi vol density dt time

# Run stle #
run_style verlet

# Run #
timestep 1
thermo 50

# write restart #
write_restart ./pgnpmf/8020/genpmf.res
System init for write_restart ...
Generated 0 of 1 mixed pair_coeff terms from geometric mixing rule
