LAMMPS (23 Jun 2022 - Update 1)
# Read restart
read_restart ./pgnpmf/8020/equpmf31.res
Reading restart file ...
  restart file = 23 Jun 2022, LAMMPS = 23 Jun 2022
  restoring atom style atomic from restart
  orthogonal box = (1716.2275 1716.2275 1716.2275) to (2283.7725 2283.7725 2283.7725)
  restoring pair style table from restart
  1000 atoms
  read_restart CPU = 0.005 seconds

# Settings

pair_style table spline 9941

pair_coeff 1 1 ./pgnpmf/N20.txt DE_GNP 75.6
pair_coeff 2 2 ./pgnpmf/N100.txt DE_GNP 115.92
pair_coeff 1 2 ./pgnpmf/mixed_potential.txt DE_GNP 95.66

#Neigh_list Calc Frequency

neigh_modify delay 0 every 1 check yes

# Saving Frequency (50 frames)

variable ts_save equal 5000

# Dump
#dump_modify 1 first no sort id
dump 2 all cfg 50000 ./pgnpmf/8020/equilibration/trajectory/dumpgen.tens_*.cfg mass type xs ys zs fx fy fz
dump_modify 2 element N20 N100

# thermo_style
thermo_style custom step temp press pe density ke etotal lx ly lz xlo xhi ylo yhi zlo zhi vol dt time cpu tpcpu spcpu cpuremain

# run info
timestep 0.25
thermo 200

# fix

fix 1 all momentum 1000 linear 1 1 1 angular
variable T equal 300
fix 2 all nvt temp 300 370000 100.0

run 100000
Generated 0 of 1 mixed pair_coeff terms from geometric mixing rule
Unused restart file global fix info:
  fix style: npt, fix ID: 5
  update every 1 steps, delay 0 steps, check yes
Step          Temp          Press          PotEng        Density         KinEng         TotEng           Lx             Ly             Lz            Xlo            Xhi            Ylo            Yhi            Zlo            Zhi           Volume           Dt            Time           CPU           T/CPU          S/CPU         CPULeft
32010000   305.75329     -4.4604242     -15969135       2.3788579      910.48108     -15968225       567.5451       567.5451       567.5451       1716.2275      2283.7725      1716.2275      2283.7725      1716.2275      2283.7725      1.8281049e+08  0.25           8760000        0              0              0              0
Averages over the last 251 of 501 rows, steps 32060000 to 32110000:
Temp Press PotEng Density KinEng TotEng Lx Ly Lz Xlo Xhi Ylo Yhi Zlo Zhi Volume Dt
276552 3440.68 -1.53176e+07 2.37886 823523 -1.4494e+07 567.545 567.545 567.545 1716.23 2283.77 1716.23 2283.77 1716.23 2283.77 1.8281e+08 0.25
Loop time of 7.11271 on 4 procs for 100000 steps with 1000 atoms

unfix 2

fix 3 all nvt temp 370000 370000 $(100.0*dt) #iso 1.0 1.0 $(1000.0*dt)
fix 3 all nvt temp 370000 370000 25

run 500000
Generated 0 of 1 mixed pair_coeff terms from geometric mixing rule
Step          Temp          Press          PotEng        Density         KinEng         TotEng           Lx             Ly             Lz            Xlo            Xhi            Ylo            Yhi            Zlo            Zhi           Volume           Dt            Time           CPU           T/CPU          S/CPU         CPULeft
32110000   370856.97      4792.612      -15061521       2.3788579      1104348.7     -13957172       567.5451       567.5451       567.5451       1716.2275      2283.7725      1716.2275      2283.7725      1716.2275      2283.7725      1.8281049e+08  0.25           8785000        0              0              0              0
Averages over the last 1251 of 2501 rows, steps 32360000 to 32610000:
Temp Press PotEng Density KinEng TotEng Lx Ly Lz Xlo Xhi Ylo Yhi Zlo Zhi Volume Dt
370041 4213.73 -1.50225e+07 2.37886 1.10192e+06 -1.39206e+07 567.545 567.545 567.545 1716.23 2283.77 1716.23 2283.77 1716.23 2283.77 1.8281e+08 0.25
Loop time of 36.7229 on 4 procs for 500000 steps with 1000 atoms

unfix 3

fix 4 all nvt temp 370000 300 100.0

run 100000
Generated 0 of 1 mixed pair_coeff terms from geometric mixing rule
Step          Temp          Press          PotEng        Density         KinEng         TotEng           Lx             Ly             Lz            Xlo            Xhi            Ylo            Yhi            Zlo            Zhi           Volume           Dt            Time           CPU           T/CPU          S/CPU         CPULeft
32610000   384883.18      4177.2269     -15024323       2.3788579      1146116.4     -13878206       567.5451       567.5451       567.5451       1716.2275      2283.7725      1716.2275      2283.7725      1716.2275      2283.7725      1.8281049e+08  0.25           8910000        0              0              0              0
Averages over the last 251 of 501 rows, steps 32660000 to 32710000:
Temp Press PotEng Density KinEng TotEng Lx Ly Lz Xlo Xhi Ylo Yhi Zlo Zhi Volume Dt
93621.8 1288.58 -1.56813e+07 2.37886 278790 -1.54025e+07 567.545 567.545 567.545 1716.23 2283.77 1716.23 2283.77 1716.23 2283.77 1.8281e+08 0.25
Loop time of 7.28434 on 4 procs for 100000 steps with 1000 atoms

unfix 4

fix 5 all npt temp 300 300 $(100.0*dt) iso 1.0 1.0 $(1000.0*dt)
fix 5 all npt temp 300 300 25 iso 1.0 1.0 $(1000.0*dt)
fix 5 all npt temp 300 300 25 iso 1.0 1.0 250

run 300000
Generated 0 of 1 mixed pair_coeff terms from geometric mixing rule
Step          Temp          Press          PotEng        Density         KinEng         TotEng           Lx             Ly             Lz            Xlo            Xhi            Ylo            Yhi            Zlo            Zhi           Volume           Dt            Time           CPU           T/CPU          S/CPU         CPULeft
32710000   2401.7095      321.74377     -15928090       2.3788579      7151.8807     -15920938       567.5451       567.5451       567.5451       1716.2275      2283.7725      1716.2275      2283.7725      1716.2275      2283.7725      1.8281049e+08  0.25           8935000        0              0              0              0
Averages over the last 751 of 1501 rows, steps 32860000 to 33010000:
Temp Press PotEng Density KinEng TotEng Lx Ly Lz Xlo Xhi Ylo Yhi Zlo Zhi Volume Dt
300.94 1.04106 -1.59939e+07 2.37722 896.148 -1.5993e+07 567.675 567.675 567.675 1716.16 2283.84 1716.16 2283.84 1716.16 2283.84 1.82936e+08 0.25
Loop time of 26.0427 on 4 procs for 300000 steps with 1000 atoms

# run_style
run_style verlet

# write restart
write_restart ./pgnpmf/8020/equpmf32.res
System init for write_restart ...
Generated 0 of 1 mixed pair_coeff terms from geometric mixing rule
