LAMMPS (23 Jun 2022 - Update 1)
# Read restart
read_restart ./pgnpmf/8020/equpmf61.res
Reading restart file ...
  restart file = 23 Jun 2022, LAMMPS = 23 Jun 2022
  restoring atom style atomic from restart
  orthogonal box = (1716.4609 1716.4609 1716.4609) to (2283.5391 2283.5391 2283.5391)
  restoring pair style table from restart
  1000 atoms
  read_restart CPU = 0.005 seconds

# Settings

pair_style table spline 9941

pair_coeff 1 1 ./pgnpmf/N20.txt DE_GNP 75.6
pair_coeff 2 2 ./pgnpmf/N100.txt DE_GNP 115.92
pair_coeff 1 2 ./pgnpmf/mixed_potential.txt DE_GNP 95.66

#Neigh_list Calc Frequency

neigh_modify delay 0 every 1 check yes

# Saving Frequency (50 frames)

variable ts_save equal 5000

# Dump
#dump_modify 1 first no sort id
dump 2 all cfg 50000 ./pgnpmf/8020/equilibration/trajectory/dumpgen.tens_*.cfg mass type xs ys zs fx fy fz
dump_modify 2 element N20 N100

# thermo_style
thermo_style custom step temp press pe density ke etotal lx ly lz xlo xhi ylo yhi zlo zhi vol dt time cpu tpcpu spcpu cpuremain

# run info
timestep 0.25
thermo 200

# fix

fix 1 all momentum 1000 linear 1 1 1 angular
variable T equal 300
fix 2 all nvt temp 300 370000 100.0

run 100000
Generated 0 of 1 mixed pair_coeff terms from geometric mixing rule
Unused restart file global fix info:
  fix style: npt, fix ID: 5
  update every 1 steps, delay 0 steps, check yes
Step          Temp          Press          PotEng        Density         KinEng         TotEng           Lx             Ly             Lz            Xlo            Xhi            Ylo            Yhi            Zlo            Zhi           Volume           Dt            Time           CPU           T/CPU          S/CPU         CPULeft
62010000   294.46695      8.072548      -16017854       2.3847385      876.87229     -16016977       567.07821      567.07821      567.07821      1716.4609      2283.5391      1716.4609      2283.5391      1716.4609      2283.5391      1.823597e+08   0.25           16260000       0              0              0              0
Averages over the last 251 of 501 rows, steps 62060000 to 62110000:
Temp Press PotEng Density KinEng TotEng Lx Ly Lz Xlo Xhi Ylo Yhi Zlo Zhi Volume Dt
277674 3492.95 -1.54249e+07 2.38474 826867 -1.4598e+07 567.078 567.078 567.078 1716.46 2283.54 1716.46 2283.54 1716.46 2283.54 1.8236e+08 0.25
Loop time of 6.76909 on 4 procs for 100000 steps with 1000 atoms

unfix 2

fix 3 all nvt temp 370000 370000 $(100.0*dt) #iso 1.0 1.0 $(1000.0*dt)
fix 3 all nvt temp 370000 370000 25

run 500000
Generated 0 of 1 mixed pair_coeff terms from geometric mixing rule
Step          Temp          Press          PotEng        Density         KinEng         TotEng           Lx             Ly             Lz            Xlo            Xhi            Ylo            Yhi            Zlo            Zhi           Volume           Dt            Time           CPU           T/CPU          S/CPU         CPULeft
62110000   382452.64      4680.3883     -15070918       2.3847385      1138878.6     -13932039       567.07821      567.07821      567.07821      1716.4609      2283.5391      1716.4609      2283.5391      1716.4609      2283.5391      1.823597e+08   0.25           16285000       0              0              0              0
Averages over the last 1251 of 2501 rows, steps 62360000 to 62610000:
Temp Press PotEng Density KinEng TotEng Lx Ly Lz Xlo Xhi Ylo Yhi Zlo Zhi Volume Dt
369848 4249.09 -1.49917e+07 2.38474 1.10134e+06 -1.38903e+07 567.078 567.078 567.078 1716.46 2283.54 1716.46 2283.54 1716.46 2283.54 1.8236e+08 0.25
Loop time of 33.9191 on 4 procs for 500000 steps with 1000 atoms

unfix 3

fix 4 all nvt temp 370000 300 100.0

run 100000
Generated 0 of 1 mixed pair_coeff terms from geometric mixing rule
Step          Temp          Press          PotEng        Density         KinEng         TotEng           Lx             Ly             Lz            Xlo            Xhi            Ylo            Yhi            Zlo            Zhi           Volume           Dt            Time           CPU           T/CPU          S/CPU         CPULeft
62610000   364358.88      4233.7969     -15026270       2.3847385      1084998.5     -13941272       567.07821      567.07821      567.07821      1716.4609      2283.5391      1716.4609      2283.5391      1716.4609      2283.5391      1.823597e+08   0.25           16410000       0              0              0              0
Averages over the last 251 of 501 rows, steps 62660000 to 62710000:
Temp Press PotEng Density KinEng TotEng Lx Ly Lz Xlo Xhi Ylo Yhi Zlo Zhi Volume Dt
93876.7 1466.14 -1.56644e+07 2.38474 279549 -1.53849e+07 567.078 567.078 567.078 1716.46 2283.54 1716.46 2283.54 1716.46 2283.54 1.8236e+08 0.25
Loop time of 6.76792 on 4 procs for 100000 steps with 1000 atoms

unfix 4

fix 5 all npt temp 300 300 $(100.0*dt) iso 1.0 1.0 $(1000.0*dt)
fix 5 all npt temp 300 300 25 iso 1.0 1.0 $(1000.0*dt)
fix 5 all npt temp 300 300 25 iso 1.0 1.0 250

run 300000
Generated 0 of 1 mixed pair_coeff terms from geometric mixing rule
Step          Temp          Press          PotEng        Density         KinEng         TotEng           Lx             Ly             Lz            Xlo            Xhi            Ylo            Yhi            Zlo            Zhi           Volume           Dt            Time           CPU           T/CPU          S/CPU         CPULeft
62710000   2393.3504      448.54578     -15890947       2.3847385      7126.9888     -15883820       567.07821      567.07821      567.07821      1716.4609      2283.5391      1716.4609      2283.5391      1716.4609      2283.5391      1.823597e+08   0.25           16435000       0              0              0              0
Averages over the last 751 of 1501 rows, steps 62860000 to 63010000:
Temp Press PotEng Density KinEng TotEng Lx Ly Lz Xlo Xhi Ylo Yhi Zlo Zhi Volume Dt
301.068 1.13609 -1.59979e+07 2.378 896.528 -1.5997e+07 567.613 567.613 567.613 1716.19 2283.81 1716.19 2283.81 1716.19 2283.81 1.82876e+08 0.25
Loop time of 23.7699 on 4 procs for 300000 steps with 1000 atoms

# run_style
run_style verlet

# write restart
write_restart ./pgnpmf/8020/equpmf62.res
System init for write_restart ...
Generated 0 of 1 mixed pair_coeff terms from geometric mixing rule
