LAMMPS (23 Jun 2022 - Update 1)
# Read restart
read_restart ./pgnpmf/8020/equpmf66.res
Reading restart file ...
  restart file = 23 Jun 2022, LAMMPS = 23 Jun 2022
  restoring atom style atomic from restart
  orthogonal box = (1716.2088 1716.2088 1716.2088) to (2283.7912 2283.7912 2283.7912)
  restoring pair style table from restart
  1000 atoms
  read_restart CPU = 0.005 seconds

# Settings

pair_style table spline 9941

pair_coeff 1 1 ./pgnpmf/N20.txt DE_GNP 75.6
pair_coeff 2 2 ./pgnpmf/N100.txt DE_GNP 115.92
pair_coeff 1 2 ./pgnpmf/mixed_potential.txt DE_GNP 95.66

#Neigh_list Calc Frequency

neigh_modify delay 0 every 1 check yes

# Saving Frequency (50 frames)

variable ts_save equal 5000

# Dump
#dump_modify 1 first no sort id
dump 2 all cfg 50000 ./pgnpmf/8020/equilibration/trajectory/dumpgen.tens_*.cfg mass type xs ys zs fx fy fz
dump_modify 2 element N20 N100

# thermo_style
thermo_style custom step temp press pe density ke etotal lx ly lz xlo xhi ylo yhi zlo zhi vol dt time cpu tpcpu spcpu cpuremain

# run info
timestep 0.25
thermo 200

# fix

fix 1 all momentum 1000 linear 1 1 1 angular
variable T equal 300
fix 2 all nvt temp 300 370000 100.0

run 100000
Generated 0 of 1 mixed pair_coeff terms from geometric mixing rule
Unused restart file global fix info:
  fix style: npt, fix ID: 5
  update every 1 steps, delay 0 steps, check yes
Step          Temp          Press          PotEng        Density         KinEng         TotEng           Lx             Ly             Lz            Xlo            Xhi            Ylo            Yhi            Zlo            Zhi           Volume           Dt            Time           CPU           T/CPU          S/CPU         CPULeft
67010000   297.37498     -3.376643      -15896113       2.3783879      885.53191     -15895227       567.58248      567.58248      567.58248      1716.2088      2283.7912      1716.2088      2283.7912      1716.2088      2283.7912      1.8284662e+08  0.25           17510000       0              0              0              0
Averages over the last 251 of 501 rows, steps 67060000 to 67110000:
Temp Press PotEng Density KinEng TotEng Lx Ly Lz Xlo Xhi Ylo Yhi Zlo Zhi Volume Dt
276938 3282.41 -1.52516e+07 2.37839 824673 -1.4427e+07 567.582 567.582 567.582 1716.21 2283.79 1716.21 2283.79 1716.21 2283.79 1.82847e+08 0.25
Loop time of 7.21074 on 4 procs for 100000 steps with 1000 atoms

unfix 2

fix 3 all nvt temp 370000 370000 $(100.0*dt) #iso 1.0 1.0 $(1000.0*dt)
fix 3 all nvt temp 370000 370000 25

run 500000
Generated 0 of 1 mixed pair_coeff terms from geometric mixing rule
Step          Temp          Press          PotEng        Density         KinEng         TotEng           Lx             Ly             Lz            Xlo            Xhi            Ylo            Yhi            Zlo            Zhi           Volume           Dt            Time           CPU           T/CPU          S/CPU         CPULeft
67110000   361451         4467.7679     -14960243       2.3783879      1076339.3     -13883903       567.58248      567.58248      567.58248      1716.2088      2283.7912      1716.2088      2283.7912      1716.2088      2283.7912      1.8284662e+08  0.25           17535000       0              0              0              0
Averages over the last 1251 of 2501 rows, steps 67360000 to 67610000:
Temp Press PotEng Density KinEng TotEng Lx Ly Lz Xlo Xhi Ylo Yhi Zlo Zhi Volume Dt
369891 4100.09 -1.49485e+07 2.37839 1.10147e+06 -1.38471e+07 567.582 567.582 567.582 1716.21 2283.79 1716.21 2283.79 1716.21 2283.79 1.82847e+08 0.25
Loop time of 35.1108 on 4 procs for 500000 steps with 1000 atoms

unfix 3

fix 4 all nvt temp 370000 300 100.0

run 100000
Generated 0 of 1 mixed pair_coeff terms from geometric mixing rule
Step          Temp          Press          PotEng        Density         KinEng         TotEng           Lx             Ly             Lz            Xlo            Xhi            Ylo            Yhi            Zlo            Zhi           Volume           Dt            Time           CPU           T/CPU          S/CPU         CPULeft
67610000   372702.02      4269.1637     -14899087       2.3783879      1109843       -13789244       567.58248      567.58248      567.58248      1716.2088      2283.7912      1716.2088      2283.7912      1716.2088      2283.7912      1.8284662e+08  0.25           17660000       0              0              0              0
Averages over the last 251 of 501 rows, steps 67660000 to 67710000:
Temp Press PotEng Density KinEng TotEng Lx Ly Lz Xlo Xhi Ylo Yhi Zlo Zhi Volume Dt
93497.9 1345.19 -1.56036e+07 2.37839 278421 -1.53252e+07 567.582 567.582 567.582 1716.21 2283.79 1716.21 2283.79 1716.21 2283.79 1.82847e+08 0.25
Loop time of 6.78189 on 4 procs for 100000 steps with 1000 atoms

unfix 4

fix 5 all npt temp 300 300 $(100.0*dt) iso 1.0 1.0 $(1000.0*dt)
fix 5 all npt temp 300 300 25 iso 1.0 1.0 $(1000.0*dt)
fix 5 all npt temp 300 300 25 iso 1.0 1.0 250

run 300000
Generated 0 of 1 mixed pair_coeff terms from geometric mixing rule
Step          Temp          Press          PotEng        Density         KinEng         TotEng           Lx             Ly             Lz            Xlo            Xhi            Ylo            Yhi            Zlo            Zhi           Volume           Dt            Time           CPU           T/CPU          S/CPU         CPULeft
67710000   2381.5875      331.97472     -15818152       2.3783879      7091.9609     -15811060       567.58248      567.58248      567.58248      1716.2088      2283.7912      1716.2088      2283.7912      1716.2088      2283.7912      1.8284662e+08  0.25           17685000       0              0              0              0
Averages over the last 751 of 1501 rows, steps 67860000 to 68010000:
Temp Press PotEng Density KinEng TotEng Lx Ly Lz Xlo Xhi Ylo Yhi Zlo Zhi Volume Dt
301.714 1.25126 -1.58659e+07 2.37755 898.453 -1.5865e+07 567.649 567.649 567.649 1716.18 2283.82 1716.18 2283.82 1716.18 2283.82 1.82911e+08 0.25
Loop time of 24.1723 on 4 procs for 300000 steps with 1000 atoms

# run_style
run_style verlet

# write restart
write_restart ./pgnpmf/8020/equpmf67.res
System init for write_restart ...
Generated 0 of 1 mixed pair_coeff terms from geometric mixing rule
