LAMMPS (23 Jun 2022 - Update 1)
# Read restart
read_restart ./pgnpmf/8020/equpmf41.res
Reading restart file ...
  restart file = 23 Jun 2022, LAMMPS = 23 Jun 2022
  restoring atom style atomic from restart
  orthogonal box = (1715.8657 1715.8657 1715.8657) to (2284.1343 2284.1343 2284.1343)
  restoring pair style table from restart
  1000 atoms
  read_restart CPU = 0.004 seconds

# Settings

pair_style table spline 9941

pair_coeff 1 1 ./pgnpmf/N20.txt DE_GNP 75.6
pair_coeff 2 2 ./pgnpmf/N100.txt DE_GNP 115.92
pair_coeff 1 2 ./pgnpmf/mixed_potential.txt DE_GNP 95.66

#Neigh_list Calc Frequency

neigh_modify delay 0 every 1 check yes

# Saving Frequency (50 frames)

variable ts_save equal 5000

# Dump
#dump_modify 1 first no sort id
dump 2 all cfg 50000 ./pgnpmf/8020/equilibration/trajectory/dumpgen.tens_*.cfg mass type xs ys zs fx fy fz
dump_modify 2 element N20 N100

# thermo_style
thermo_style custom step temp press pe density ke etotal lx ly lz xlo xhi ylo yhi zlo zhi vol dt time cpu tpcpu spcpu cpuremain

# run info
timestep 0.25
thermo 200

# fix

fix 1 all momentum 1000 linear 1 1 1 angular
variable T equal 300
fix 2 all nvt temp 300 370000 100.0

run 100000
Generated 0 of 1 mixed pair_coeff terms from geometric mixing rule
Unused restart file global fix info:
  fix style: npt, fix ID: 5
  update every 1 steps, delay 0 steps, check yes
Step          Temp          Press          PotEng        Density         KinEng         TotEng           Lx             Ly             Lz            Xlo            Xhi            Ylo            Yhi            Zlo            Zhi           Volume           Dt            Time           CPU           T/CPU          S/CPU         CPULeft
42010000   296.11471     -10.689606     -15913930       2.3697839      881.77904     -15913048       568.26856      568.26856      568.26856      1715.8657      2284.1343      1715.8657      2284.1343      1715.8657      2284.1343      1.8351049e+08  0.25           11260000       0              0              0              0
Averages over the last 251 of 501 rows, steps 42060000 to 42110000:
Temp Press PotEng Density KinEng TotEng Lx Ly Lz Xlo Xhi Ylo Yhi Zlo Zhi Volume Dt
277531 3014.04 -1.53582e+07 2.36978 826439 -1.45318e+07 568.269 568.269 568.269 1715.87 2284.13 1715.87 2284.13 1715.87 2284.13 1.8351e+08 0.25
Loop time of 7.3567 on 4 procs for 100000 steps with 1000 atoms

unfix 2

fix 3 all nvt temp 370000 370000 $(100.0*dt) #iso 1.0 1.0 $(1000.0*dt)
fix 3 all nvt temp 370000 370000 25

run 500000
Generated 0 of 1 mixed pair_coeff terms from geometric mixing rule
Step          Temp          Press          PotEng        Density         KinEng         TotEng           Lx             Ly             Lz            Xlo            Xhi            Ylo            Yhi            Zlo            Zhi           Volume           Dt            Time           CPU           T/CPU          S/CPU         CPULeft
42110000   366690.9       4368.5449     -15008375       2.3697839      1091942.9     -13916432       568.26856      568.26856      568.26856      1715.8657      2284.1343      1715.8657      2284.1343      1715.8657      2284.1343      1.8351049e+08  0.25           11285000       0              0              0              0
Averages over the last 1251 of 2501 rows, steps 42360000 to 42610000:
Temp Press PotEng Density KinEng TotEng Lx Ly Lz Xlo Xhi Ylo Yhi Zlo Zhi Volume Dt
369967 4207.12 -1.4895e+07 2.36978 1.1017e+06 -1.37933e+07 568.269 568.269 568.269 1715.87 2284.13 1715.87 2284.13 1715.87 2284.13 1.8351e+08 0.25
Loop time of 37.9628 on 4 procs for 500000 steps with 1000 atoms

unfix 3

fix 4 all nvt temp 370000 300 100.0

run 100000
Generated 0 of 1 mixed pair_coeff terms from geometric mixing rule
Step          Temp          Press          PotEng        Density         KinEng         TotEng           Lx             Ly             Lz            Xlo            Xhi            Ylo            Yhi            Zlo            Zhi           Volume           Dt            Time           CPU           T/CPU          S/CPU         CPULeft
42610000   364800.47      4121.5779     -14822982       2.3697839      1086313.5     -13736668       568.26856      568.26856      568.26856      1715.8657      2284.1343      1715.8657      2284.1343      1715.8657      2284.1343      1.8351049e+08  0.25           11410000       0              0              0              0
Averages over the last 251 of 501 rows, steps 42660000 to 42710000:
Temp Press PotEng Density KinEng TotEng Lx Ly Lz Xlo Xhi Ylo Yhi Zlo Zhi Volume Dt
93838.6 1386.37 -1.55423e+07 2.36978 279435 -1.52628e+07 568.269 568.269 568.269 1715.87 2284.13 1715.87 2284.13 1715.87 2284.13 1.8351e+08 0.25
Loop time of 7.38109 on 4 procs for 100000 steps with 1000 atoms

unfix 4

fix 5 all npt temp 300 300 $(100.0*dt) iso 1.0 1.0 $(1000.0*dt)
fix 5 all npt temp 300 300 25 iso 1.0 1.0 $(1000.0*dt)
fix 5 all npt temp 300 300 25 iso 1.0 1.0 250

run 300000
Generated 0 of 1 mixed pair_coeff terms from geometric mixing rule
Step          Temp          Press          PotEng        Density         KinEng         TotEng           Lx             Ly             Lz            Xlo            Xhi            Ylo            Yhi            Zlo            Zhi           Volume           Dt            Time           CPU           T/CPU          S/CPU         CPULeft
42710000   2419.0307      405.67097     -15789119       2.3697839      7203.4604     -15781916       568.26856      568.26856      568.26856      1715.8657      2284.1343      1715.8657      2284.1343      1715.8657      2284.1343      1.8351049e+08  0.25           11435000       0              0              0              0
Averages over the last 751 of 1501 rows, steps 42860000 to 43010000:
Temp Press PotEng Density KinEng TotEng Lx Ly Lz Xlo Xhi Ylo Yhi Zlo Zhi Volume Dt
300.965 0.888325 -1.5849e+07 2.36624 896.222 -1.58481e+07 568.553 568.553 568.553 1715.72 2284.28 1715.72 2284.28 1715.72 2284.28 1.83786e+08 0.25
Loop time of 26.0666 on 4 procs for 300000 steps with 1000 atoms

# run_style
run_style verlet

# write restart
write_restart ./pgnpmf/8020/equpmf42.res
System init for write_restart ...
Generated 0 of 1 mixed pair_coeff terms from geometric mixing rule
