LAMMPS (23 Jun 2022 - Update 1)
# Read restart
read_restart ./pgnpmf/8020/equpmf15.res
Reading restart file ...
  restart file = 23 Jun 2022, LAMMPS = 23 Jun 2022
  restoring atom style atomic from restart
  orthogonal box = (1692.639 1692.639 1692.639) to (2307.361 2307.361 2307.361)
  restoring pair style table from restart
  1000 atoms
  read_restart CPU = 0.005 seconds

# Settings

pair_style table spline 9941

pair_coeff 1 1 ./pgnpmf/N20.txt DE_GNP 75.6
pair_coeff 2 2 ./pgnpmf/N100.txt DE_GNP 115.92
pair_coeff 1 2 ./pgnpmf/mixed_potential.txt DE_GNP 95.66

#Neigh_list Calc Frequency

neigh_modify delay 0 every 1 check yes

# Saving Frequency (50 frames)

variable ts_save equal 5000

# Dump
#dump_modify 1 first no sort id
dump 2 all cfg 50000 ./pgnpmf/8020/equilibration/trajectory/dumpgen.tens_*.cfg mass type xs ys zs fx fy fz
dump_modify 2 element N20 N100

# thermo_style
thermo_style custom step temp press pe density ke etotal lx ly lz xlo xhi ylo yhi zlo zhi vol dt time cpu tpcpu spcpu cpuremain

# run info
timestep 0.25
thermo 200

# fix

fix 1 all momentum 1000 linear 1 1 1 angular
variable T equal 300
fix 2 all nvt temp 300 370000 100.0

run 100000
Generated 0 of 1 mixed pair_coeff terms from geometric mixing rule
Unused restart file global fix info:
  fix style: npt, fix ID: 5
  update every 1 steps, delay 0 steps, check yes
Step          Temp          Press          PotEng        Density         KinEng         TotEng           Lx             Ly             Lz            Xlo            Xhi            Ylo            Yhi            Zlo            Zhi           Volume           Dt            Time           CPU           T/CPU          S/CPU         CPULeft
16010000   314.43854     -1.4736521     -13374252       1.8721183      936.34427     -13373315       614.72204      614.72204      614.72204      1692.639       2307.361       1692.639       2307.361       1692.639       2307.361       2.3229312e+08  0.25           4760000        0              0              0              0
Averages over the last 251 of 501 rows, steps 16060000 to 16110000:
Temp Press PotEng Density KinEng TotEng Lx Ly Lz Xlo Xhi Ylo Yhi Zlo Zhi Volume Dt
277143 453.252 -1.32521e+07 1.87212 825284 -1.24268e+07 614.722 614.722 614.722 1692.64 2307.36 1692.64 2307.36 1692.64 2307.36 2.32293e+08 0.25
Loop time of 5.6525 on 4 procs for 100000 steps with 1000 atoms

unfix 2

fix 3 all nvt temp 370000 370000 $(100.0*dt) #iso 1.0 1.0 $(1000.0*dt)
fix 3 all nvt temp 370000 370000 25

run 500000
Generated 0 of 1 mixed pair_coeff terms from geometric mixing rule
Step          Temp          Press          PotEng        Density         KinEng         TotEng           Lx             Ly             Lz            Xlo            Xhi            Ylo            Yhi            Zlo            Zhi           Volume           Dt            Time           CPU           T/CPU          S/CPU         CPULeft
16110000   363175.28      875.15107     -13070111       1.8721183      1081474       -11988637       614.72204      614.72204      614.72204      1692.639       2307.361       1692.639       2307.361       1692.639       2307.361       2.3229312e+08  0.25           4785000        0              0              0              0
Averages over the last 1251 of 2501 rows, steps 16360000 to 16610000:
Temp Press PotEng Density KinEng TotEng Lx Ly Lz Xlo Xhi Ylo Yhi Zlo Zhi Volume Dt
370180 619.028 -1.27904e+07 1.87212 1.10233e+06 -1.16881e+07 614.722 614.722 614.722 1692.64 2307.36 1692.64 2307.36 1692.64 2307.36 2.32293e+08 0.25
Loop time of 28.4775 on 4 procs for 500000 steps with 1000 atoms

unfix 3

fix 4 all nvt temp 370000 300 100.0

run 100000
Generated 0 of 1 mixed pair_coeff terms from geometric mixing rule
Step          Temp          Press          PotEng        Density         KinEng         TotEng           Lx             Ly             Lz            Xlo            Xhi            Ylo            Yhi            Zlo            Zhi           Volume           Dt            Time           CPU           T/CPU          S/CPU         CPULeft
16610000   354352.02      577.37869     -12804964       1.8721183      1055199.8     -11749764       614.72204      614.72204      614.72204      1692.639       2307.361       1692.639       2307.361       1692.639       2307.361       2.3229312e+08  0.25           4910000        0              0              0              0
Averages over the last 251 of 501 rows, steps 16660000 to 16710000:
Temp Press PotEng Density KinEng TotEng Lx Ly Lz Xlo Xhi Ylo Yhi Zlo Zhi Volume Dt
93301.5 -737.346 -1.31224e+07 1.87212 277836 -1.28445e+07 614.722 614.722 614.722 1692.64 2307.36 1692.64 2307.36 1692.64 2307.36 2.32293e+08 0.25
Loop time of 5.69811 on 4 procs for 100000 steps with 1000 atoms

unfix 4

fix 5 all npt temp 300 300 $(100.0*dt) iso 1.0 1.0 $(1000.0*dt)
fix 5 all npt temp 300 300 25 iso 1.0 1.0 $(1000.0*dt)
fix 5 all npt temp 300 300 25 iso 1.0 1.0 250

run 300000
Generated 0 of 1 mixed pair_coeff terms from geometric mixing rule
Step          Temp          Press          PotEng        Density         KinEng         TotEng           Lx             Ly             Lz            Xlo            Xhi            Ylo            Yhi            Zlo            Zhi           Volume           Dt            Time           CPU           T/CPU          S/CPU         CPULeft
16710000   2277.1913     -1312.2786     -13272091       1.8721183      6781.0868     -13265310       614.72204      614.72204      614.72204      1692.639       2307.361       1692.639       2307.361       1692.639       2307.361       2.3229312e+08  0.25           4935000        0              0              0              0
Averages over the last 751 of 1501 rows, steps 16860000 to 17010000:
Temp Press PotEng Density KinEng TotEng Lx Ly Lz Xlo Xhi Ylo Yhi Zlo Zhi Volume Dt
313.37 1.42309 -1.41796e+07 2.05235 933.164 -1.41787e+07 596.177 596.177 596.177 1701.91 2298.09 1701.91 2298.09 1701.91 2298.09 2.11899e+08 0.25
Loop time of 21.1704 on 4 procs for 300000 steps with 1000 atoms

# run_style
run_style verlet

# write restart
write_restart ./pgnpmf/8020/equpmf16.res
System init for write_restart ...
Generated 0 of 1 mixed pair_coeff terms from geometric mixing rule
