LAMMPS (23 Jun 2022 - Update 1)
# Read restart
read_restart ./pgnpmf/8020/equpmf12.res
Reading restart file ...
  restart file = 23 Jun 2022, LAMMPS = 23 Jun 2022
  restoring atom style atomic from restart
  orthogonal box = (1651.9636 1651.9636 1651.9636) to (2348.0364 2348.0364 2348.0364)
  restoring pair style table from restart
  1000 atoms
  read_restart CPU = 0.003 seconds

# Settings

pair_style table spline 9941

pair_coeff 1 1 ./pgnpmf/N20.txt DE_GNP 75.6
pair_coeff 2 2 ./pgnpmf/N100.txt DE_GNP 115.92
pair_coeff 1 2 ./pgnpmf/mixed_potential.txt DE_GNP 95.66

#Neigh_list Calc Frequency

neigh_modify delay 0 every 1 check yes

# Saving Frequency (50 frames)

variable ts_save equal 5000

# Dump
#dump_modify 1 first no sort id
dump 2 all cfg 50000 ./pgnpmf/8020/equilibration/trajectory/dumpgen.tens_*.cfg mass type xs ys zs fx fy fz
dump_modify 2 element N20 N100

# thermo_style
thermo_style custom step temp press pe density ke etotal lx ly lz xlo xhi ylo yhi zlo zhi vol dt time cpu tpcpu spcpu cpuremain

# run info
timestep 0.25
thermo 200

# fix

fix 1 all momentum 1000 linear 1 1 1 angular
variable T equal 300
fix 2 all nvt temp 300 370000 100.0

run 100000
Generated 0 of 1 mixed pair_coeff terms from geometric mixing rule
Unused restart file global fix info:
  fix style: npt, fix ID: 5
  update every 1 steps, delay 0 steps, check yes
Step          Temp          Press          PotEng        Density         KinEng         TotEng           Lx             Ly             Lz            Xlo            Xhi            Ylo            Yhi            Zlo            Zhi           Volume           Dt            Time           CPU           T/CPU          S/CPU         CPULeft
13010000   314.89421      1.2197802     -10786258       1.2894529      937.70119     -10785320       696.07288      696.07288      696.07288      1651.9636      2348.0364      1651.9636      2348.0364      1651.9636      2348.0364      3.3725946e+08  0.25           4010000        0              0              0              0
Averages over the last 251 of 501 rows, steps 13060000 to 13110000:
Temp Press PotEng Density KinEng TotEng Lx Ly Lz Xlo Xhi Ylo Yhi Zlo Zhi Volume Dt
277301 229.462 -1.0858e+07 1.28945 825755 -1.00323e+07 696.073 696.073 696.073 1651.96 2348.04 1651.96 2348.04 1651.96 2348.04 3.37259e+08 0.25
Loop time of 4.64885 on 4 procs for 100000 steps with 1000 atoms

unfix 2

fix 3 all nvt temp 370000 370000 $(100.0*dt) #iso 1.0 1.0 $(1000.0*dt)
fix 3 all nvt temp 370000 370000 25

run 500000
Generated 0 of 1 mixed pair_coeff terms from geometric mixing rule
Step          Temp          Press          PotEng        Density         KinEng         TotEng           Lx             Ly             Lz            Xlo            Xhi            Ylo            Yhi            Zlo            Zhi           Volume           Dt            Time           CPU           T/CPU          S/CPU         CPULeft
13110000   353462.96      206.46124     -10760297       1.2894529      1052552.3     -9707744.7      696.07288      696.07288      696.07288      1651.9636      2348.0364      1651.9636      2348.0364      1651.9636      2348.0364      3.3725946e+08  0.25           4035000        0              0              0              0
Averages over the last 1251 of 2501 rows, steps 13360000 to 13610000:
Temp Press PotEng Density KinEng TotEng Lx Ly Lz Xlo Xhi Ylo Yhi Zlo Zhi Volume Dt
369905 134.405 -1.02012e+07 1.28945 1.10151e+06 -9.09969e+06 696.073 696.073 696.073 1651.96 2348.04 1651.96 2348.04 1651.96 2348.04 3.37259e+08 0.25
Loop time of 23.799 on 4 procs for 500000 steps with 1000 atoms

unfix 3

fix 4 all nvt temp 370000 300 100.0

run 100000
Generated 0 of 1 mixed pair_coeff terms from geometric mixing rule
Step          Temp          Press          PotEng        Density         KinEng         TotEng           Lx             Ly             Lz            Xlo            Xhi            Ylo            Yhi            Zlo            Zhi           Volume           Dt            Time           CPU           T/CPU          S/CPU         CPULeft
13610000   350017.35      146.82786     -10045243       1.2894529      1042291.9     -9002951.4      696.07288      696.07288      696.07288      1651.9636      2348.0364      1651.9636      2348.0364      1651.9636      2348.0364      3.3725946e+08  0.25           4160000        0              0              0              0
Averages over the last 251 of 501 rows, steps 13660000 to 13710000:
Temp Press PotEng Density KinEng TotEng Lx Ly Lz Xlo Xhi Ylo Yhi Zlo Zhi Volume Dt
93475.5 -415.614 -1.04628e+07 1.28945 278354 -1.01844e+07 696.073 696.073 696.073 1651.96 2348.04 1651.96 2348.04 1651.96 2348.04 3.37259e+08 0.25
Loop time of 4.62385 on 4 procs for 100000 steps with 1000 atoms

unfix 4

fix 5 all npt temp 300 300 $(100.0*dt) iso 1.0 1.0 $(1000.0*dt)
fix 5 all npt temp 300 300 25 iso 1.0 1.0 $(1000.0*dt)
fix 5 all npt temp 300 300 25 iso 1.0 1.0 250

run 300000
Generated 0 of 1 mixed pair_coeff terms from geometric mixing rule
Step          Temp          Press          PotEng        Density         KinEng         TotEng           Lx             Ly             Lz            Xlo            Xhi            Ylo            Yhi            Zlo            Zhi           Volume           Dt            Time           CPU           T/CPU          S/CPU         CPULeft
13710000   2285.9939     -642.4012      -10612115       1.2894529      6807.2996     -10605307       696.07288      696.07288      696.07288      1651.9636      2348.0364      1651.9636      2348.0364      1651.9636      2348.0364      3.3725946e+08  0.25           4185000        0              0              0              0
Averages over the last 751 of 1501 rows, steps 13860000 to 14010000:
Temp Press PotEng Density KinEng TotEng Lx Ly Lz Xlo Xhi Ylo Yhi Zlo Zhi Volume Dt
316.16 1.05577 -1.15237e+07 1.44245 941.47 -1.15227e+07 670.552 670.552 670.552 1664.72 2335.28 1664.72 2335.28 1664.72 2335.28 3.01516e+08 0.25
Loop time of 17.7386 on 4 procs for 300000 steps with 1000 atoms

# run_style
run_style verlet

# write restart
write_restart ./pgnpmf/8020/equpmf13.res
System init for write_restart ...
Generated 0 of 1 mixed pair_coeff terms from geometric mixing rule
