LAMMPS (23 Jun 2022 - Update 1)
# Read restart
read_restart ./pgnpmf/8020/equpmf38.res
Reading restart file ...
  restart file = 23 Jun 2022, LAMMPS = 23 Jun 2022
  restoring atom style atomic from restart
  orthogonal box = (1715.9491 1715.9491 1715.9491) to (2284.0509 2284.0509 2284.0509)
  restoring pair style table from restart
  1000 atoms
  read_restart CPU = 0.005 seconds

# Settings

pair_style table spline 9941

pair_coeff 1 1 ./pgnpmf/N20.txt DE_GNP 75.6
pair_coeff 2 2 ./pgnpmf/N100.txt DE_GNP 115.92
pair_coeff 1 2 ./pgnpmf/mixed_potential.txt DE_GNP 95.66

#Neigh_list Calc Frequency

neigh_modify delay 0 every 1 check yes

# Saving Frequency (50 frames)

variable ts_save equal 5000

# Dump
#dump_modify 1 first no sort id
dump 2 all cfg 50000 ./pgnpmf/8020/equilibration/trajectory/dumpgen.tens_*.cfg mass type xs ys zs fx fy fz
dump_modify 2 element N20 N100

# thermo_style
thermo_style custom step temp press pe density ke etotal lx ly lz xlo xhi ylo yhi zlo zhi vol dt time cpu tpcpu spcpu cpuremain

# run info
timestep 0.25
thermo 200

# fix

fix 1 all momentum 1000 linear 1 1 1 angular
variable T equal 300
fix 2 all nvt temp 300 370000 100.0

run 100000
Generated 0 of 1 mixed pair_coeff terms from geometric mixing rule
Unused restart file global fix info:
  fix style: npt, fix ID: 5
  update every 1 steps, delay 0 steps, check yes
Step          Temp          Press          PotEng        Density         KinEng         TotEng           Lx             Ly             Lz            Xlo            Xhi            Ylo            Yhi            Zlo            Zhi           Volume           Dt            Time           CPU           T/CPU          S/CPU         CPULeft
39010000   298.87922     -4.1657784     -15960605       2.3718705      890.01128     -15959715       568.10187      568.10187      568.10187      1715.9491      2284.0509      1715.9491      2284.0509      1715.9491      2284.0509      1.8334905e+08  0.25           10510000       0              0              0              0
Averages over the last 251 of 501 rows, steps 39060000 to 39110000:
Temp Press PotEng Density KinEng TotEng Lx Ly Lz Xlo Xhi Ylo Yhi Zlo Zhi Volume Dt
276932 3283.34 -1.5261e+07 2.37187 824656 -1.44363e+07 568.102 568.102 568.102 1715.95 2284.05 1715.95 2284.05 1715.95 2284.05 1.83349e+08 0.25
Loop time of 7.46593 on 4 procs for 100000 steps with 1000 atoms

unfix 2

fix 3 all nvt temp 370000 370000 $(100.0*dt) #iso 1.0 1.0 $(1000.0*dt)
fix 3 all nvt temp 370000 370000 25

run 500000
Generated 0 of 1 mixed pair_coeff terms from geometric mixing rule
Step          Temp          Press          PotEng        Density         KinEng         TotEng           Lx             Ly             Lz            Xlo            Xhi            Ylo            Yhi            Zlo            Zhi           Volume           Dt            Time           CPU           T/CPU          S/CPU         CPULeft
39110000   372997.36      4179.5303     -15043710       2.3718705      1110722.4     -13932987       568.10187      568.10187      568.10187      1715.9491      2284.0509      1715.9491      2284.0509      1715.9491      2284.0509      1.8334905e+08  0.25           10535000       0              0              0              0
Averages over the last 1251 of 2501 rows, steps 39360000 to 39610000:
Temp Press PotEng Density KinEng TotEng Lx Ly Lz Xlo Xhi Ylo Yhi Zlo Zhi Volume Dt
369759 4105.22 -1.48967e+07 2.37187 1.10108e+06 -1.37956e+07 568.102 568.102 568.102 1715.95 2284.05 1715.95 2284.05 1715.95 2284.05 1.83349e+08 0.25
Loop time of 37.8555 on 4 procs for 500000 steps with 1000 atoms

unfix 3

fix 4 all nvt temp 370000 300 100.0

run 100000
Generated 0 of 1 mixed pair_coeff terms from geometric mixing rule
Step          Temp          Press          PotEng        Density         KinEng         TotEng           Lx             Ly             Lz            Xlo            Xhi            Ylo            Yhi            Zlo            Zhi           Volume           Dt            Time           CPU           T/CPU          S/CPU         CPULeft
39610000   370736.11      4213.0757     -14865303       2.3718705      1103988.8     -13761315       568.10187      568.10187      568.10187      1715.9491      2284.0509      1715.9491      2284.0509      1715.9491      2284.0509      1.8334905e+08  0.25           10660000       0              0              0              0
Averages over the last 251 of 501 rows, steps 39660000 to 39710000:
Temp Press PotEng Density KinEng TotEng Lx Ly Lz Xlo Xhi Ylo Yhi Zlo Zhi Volume Dt
93561.8 1297.91 -1.56183e+07 2.37187 278611 -1.53397e+07 568.102 568.102 568.102 1715.95 2284.05 1715.95 2284.05 1715.95 2284.05 1.83349e+08 0.25
Loop time of 7.3301 on 4 procs for 100000 steps with 1000 atoms

unfix 4

fix 5 all npt temp 300 300 $(100.0*dt) iso 1.0 1.0 $(1000.0*dt)
fix 5 all npt temp 300 300 25 iso 1.0 1.0 $(1000.0*dt)
fix 5 all npt temp 300 300 25 iso 1.0 1.0 250

run 300000
Generated 0 of 1 mixed pair_coeff terms from geometric mixing rule
Step          Temp          Press          PotEng        Density         KinEng         TotEng           Lx             Ly             Lz            Xlo            Xhi            Ylo            Yhi            Zlo            Zhi           Volume           Dt            Time           CPU           T/CPU          S/CPU         CPULeft
39710000   2394.3137      310.67038     -15858837       2.3718705      7129.8573     -15851707       568.10187      568.10187      568.10187      1715.9491      2284.0509      1715.9491      2284.0509      1715.9491      2284.0509      1.8334905e+08  0.25           10685000       0              0              0              0
Averages over the last 751 of 1501 rows, steps 39860000 to 40010000:
Temp Press PotEng Density KinEng TotEng Lx Ly Lz Xlo Xhi Ylo Yhi Zlo Zhi Volume Dt
301.715 0.73729 -1.59541e+07 2.37248 898.454 -1.59532e+07 568.053 568.053 568.053 1715.97 2284.03 1715.97 2284.03 1715.97 2284.03 1.83302e+08 0.25
Loop time of 26.3257 on 4 procs for 300000 steps with 1000 atoms

# run_style
run_style verlet

# write restart
write_restart ./pgnpmf/8020/equpmf39.res
System init for write_restart ...
Generated 0 of 1 mixed pair_coeff terms from geometric mixing rule
