LAMMPS (23 Jun 2022 - Update 1)
# Read restart
read_restart ./pgnpmf/8020/equpmf10.res
Reading restart file ...
  restart file = 23 Jun 2022, LAMMPS = 23 Jun 2022
  restoring atom style atomic from restart
  orthogonal box = (1620.2776 1620.2776 1620.2776) to (2379.7224 2379.7224 2379.7224)
  restoring pair style table from restart
  1000 atoms
  read_restart CPU = 0.006 seconds

# Settings

pair_style table spline 9941

pair_coeff 1 1 ./pgnpmf/N20.txt DE_GNP 75.6
pair_coeff 2 2 ./pgnpmf/N100.txt DE_GNP 115.92
pair_coeff 1 2 ./pgnpmf/mixed_potential.txt DE_GNP 95.66

#Neigh_list Calc Frequency

neigh_modify delay 0 every 1 check yes

# Saving Frequency (50 frames)

variable ts_save equal 5000

# Dump
#dump_modify 1 first no sort id
dump 2 all cfg 50000 ./pgnpmf/8020/equilibration/trajectory/dumpgen.tens_*.cfg mass type xs ys zs fx fy fz
dump_modify 2 element N20 N100

# thermo_style
thermo_style custom step temp press pe density ke etotal lx ly lz xlo xhi ylo yhi zlo zhi vol dt time cpu tpcpu spcpu cpuremain

# run info
timestep 0.25
thermo 200

# fix

fix 1 all momentum 1000 linear 1 1 1 angular
variable T equal 300
fix 2 all nvt temp 300 370000 100.0

run 100000
Generated 0 of 1 mixed pair_coeff terms from geometric mixing rule
Unused restart file global fix info:
  fix style: npt, fix ID: 5
  update every 1 steps, delay 0 steps, check yes
Step          Temp          Press          PotEng        Density         KinEng         TotEng           Lx             Ly             Lz            Xlo            Xhi            Ylo            Yhi            Zlo            Zhi           Volume           Dt            Time           CPU           T/CPU          S/CPU         CPULeft
11010000   313.42335      1.3799903     -9115366.9      0.9928439      933.32122     -9114433.6      759.44481      759.44481      759.44481      1620.2776      2379.7224      1620.2776      2379.7224      1620.2776      2379.7224      4.3801468e+08  0.25           3510000        0              0              0              0
Averages over the last 251 of 501 rows, steps 11060000 to 11110000:
Temp Press PotEng Density KinEng TotEng Lx Ly Lz Xlo Xhi Ylo Yhi Zlo Zhi Volume Dt
277243 170.42 -9.30355e+06 0.992844 825583 -8.47797e+06 759.445 759.445 759.445 1620.28 2379.72 1620.28 2379.72 1620.28 2379.72 4.38015e+08 0.25
Loop time of 4.22836 on 4 procs for 100000 steps with 1000 atoms

unfix 2

fix 3 all nvt temp 370000 370000 $(100.0*dt) #iso 1.0 1.0 $(1000.0*dt)
fix 3 all nvt temp 370000 370000 25

run 500000
Generated 0 of 1 mixed pair_coeff terms from geometric mixing rule
Step          Temp          Press          PotEng        Density         KinEng         TotEng           Lx             Ly             Lz            Xlo            Xhi            Ylo            Yhi            Zlo            Zhi           Volume           Dt            Time           CPU           T/CPU          S/CPU         CPULeft
11110000   360864.58      146.42121     -9242109.9      0.9928439      1074593.1     -8167516.8      759.44481      759.44481      759.44481      1620.2776      2379.7224      1620.2776      2379.7224      1620.2776      2379.7224      4.3801468e+08  0.25           3535000        0              0              0              0
Averages over the last 1251 of 2501 rows, steps 11360000 to 11610000:
Temp Press PotEng Density KinEng TotEng Lx Ly Lz Xlo Xhi Ylo Yhi Zlo Zhi Volume Dt
370103 76.606 -8.64578e+06 0.992844 1.1021e+06 -7.54367e+06 759.445 759.445 759.445 1620.28 2379.72 1620.28 2379.72 1620.28 2379.72 4.38015e+08 0.25
Loop time of 21.5456 on 4 procs for 500000 steps with 1000 atoms

unfix 3

fix 4 all nvt temp 370000 300 100.0

run 100000
Generated 0 of 1 mixed pair_coeff terms from geometric mixing rule
Step          Temp          Press          PotEng        Density         KinEng         TotEng           Lx             Ly             Lz            Xlo            Xhi            Ylo            Yhi            Zlo            Zhi           Volume           Dt            Time           CPU           T/CPU          S/CPU         CPULeft
11610000   373851.25      56.35909      -8634818        0.9928439      1113265.2     -7521552.8      759.44481      759.44481      759.44481      1620.2776      2379.7224      1620.2776      2379.7224      1620.2776      2379.7224      4.3801468e+08  0.25           3660000        0              0              0              0
Averages over the last 251 of 501 rows, steps 11660000 to 11710000:
Temp Press PotEng Density KinEng TotEng Lx Ly Lz Xlo Xhi Ylo Yhi Zlo Zhi Volume Dt
93491.7 -220.369 -8.97018e+06 0.992844 278402 -8.69178e+06 759.445 759.445 759.445 1620.28 2379.72 1620.28 2379.72 1620.28 2379.72 4.38015e+08 0.25
Loop time of 4.17479 on 4 procs for 100000 steps with 1000 atoms

unfix 4

fix 5 all npt temp 300 300 $(100.0*dt) iso 1.0 1.0 $(1000.0*dt)
fix 5 all npt temp 300 300 25 iso 1.0 1.0 $(1000.0*dt)
fix 5 all npt temp 300 300 25 iso 1.0 1.0 250

run 300000
Generated 0 of 1 mixed pair_coeff terms from geometric mixing rule
Step          Temp          Press          PotEng        Density         KinEng         TotEng           Lx             Ly             Lz            Xlo            Xhi            Ylo            Yhi            Zlo            Zhi           Volume           Dt            Time           CPU           T/CPU          S/CPU         CPULeft
11710000   2295.8995     -349.13974     -9186860.5      0.9928439      6836.7965     -9180023.7      759.44481      759.44481      759.44481      1620.2776      2379.7224      1620.2776      2379.7224      1620.2776      2379.7224      4.3801468e+08  0.25           3685000        0              0              0              0
Averages over the last 751 of 1501 rows, steps 11860000 to 12010000:
Temp Press PotEng Density KinEng TotEng Lx Ly Lz Xlo Xhi Ylo Yhi Zlo Zhi Volume Dt
316.644 1.05116 -9.93845e+06 1.11262 942.912 -9.93751e+06 731.174 731.174 731.174 1634.41 2365.59 1634.41 2365.59 1634.41 2365.59 3.90914e+08 0.25
Loop time of 16.1649 on 4 procs for 300000 steps with 1000 atoms

# run_style
run_style verlet

# write restart
write_restart ./pgnpmf/8020/equpmf11.res
System init for write_restart ...
Generated 0 of 1 mixed pair_coeff terms from geometric mixing rule
