LAMMPS (23 Jun 2022 - Update 1)
# Read restart
read_restart ./pgnpmf/800200/equpmf45.res
Reading restart file ...
  restart file = 23 Jun 2022, LAMMPS = 23 Jun 2022
  restoring atom style atomic from restart
  orthogonal box = (2216.7588 2216.7588 2216.7588) to (2783.2412 2783.2412 2783.2412)
  restoring pair style table from restart
  1000 atoms
  read_restart CPU = 0.012 seconds

# Settings

pair_style table spline 9941

pair_coeff 1 1 ./pgnpmf/N20.txt DE_GNP 75.6
pair_coeff 2 2 ./pgnpmf/N100.txt DE_GNP 115.92
pair_coeff 1 2 ./pgnpmf/mixed_potential.txt DE_GNP 95.66

#Neigh_list Calc Frequency

neigh_modify delay 0 every 1 check yes

# Saving Frequency (50 frames)

variable ts_save equal 5000

# Dump
#dump_modify 1 first no sort id
#dump 2 all cfg 50000 ./equilibration/trajectory/ovito/dumpgen.tens_*.cfg mass type xs ys zs fx fy fz

# thermo_style
thermo_style custom step temp press pe density ke etotal lx ly lz xlo xhi ylo yhi zlo zhi vol dt time cpu tpcpu spcpu cpuremain

# run info
timestep 0.5
thermo 200

# fix

fix 1 all momentum 1000 linear 1 1 1 angular
variable T equal 300
fix 2 all nvt temp 300 370000 100.0

run 100000
Generated 0 of 1 mixed pair_coeff terms from geometric mixing rule
Unused restart file global fix info:
  fix style: npt, fix ID: 5
  update every 1 steps, delay 0 steps, check yes
Step          Temp          Press          PotEng        Density         KinEng         TotEng           Lx             Ly             Lz            Xlo            Xhi            Ylo            Yhi            Zlo            Zhi           Volume           Dt            Time           CPU           T/CPU          S/CPU         CPULeft
31505000   319.5914       7.5707854     -16195653       2.3922697      951.68861     -16194701       566.4825       566.4825       566.4825       2216.7588      2783.2412      2216.7588      2783.2412      2216.7588      2783.2412      1.8178561e+08  0.5            15755000       0              0              0              0
Averages over the last 251 of 501 rows, steps 31555000 to 31605000:
Temp Press PotEng Density KinEng TotEng Lx Ly Lz Xlo Xhi Ylo Yhi Zlo Zhi Volume Dt
277792 3442.91 -1.54017e+07 2.39227 827216 -1.45745e+07 566.482 566.482 566.482 2216.76 2783.24 2216.76 2783.24 2216.76 2783.24 1.81786e+08 0.5
Loop time of 19.3203 on 4 procs for 100000 steps with 1000 atoms

unfix 2

fix 3 all nvt temp 370000 370000 $(100.0*dt) #iso 1.0 1.0 $(1000.0*dt)
fix 3 all nvt temp 370000 370000 50

run 200000
Generated 0 of 1 mixed pair_coeff terms from geometric mixing rule
Step          Temp          Press          PotEng        Density         KinEng         TotEng           Lx             Ly             Lz            Xlo            Xhi            Ylo            Yhi            Zlo            Zhi           Volume           Dt            Time           CPU           T/CPU          S/CPU         CPULeft
31605000   381611.48      4241.0625     -15193521       2.3922697      1136373.8     -14057147       566.4825       566.4825       566.4825       2216.7588      2783.2412      2216.7588      2783.2412      2216.7588      2783.2412      1.8178561e+08  0.5            15805000       0              0              0              0
Averages over the last 501 of 1001 rows, steps 31705000 to 31805000:
Temp Press PotEng Density KinEng TotEng Lx Ly Lz Xlo Xhi Ylo Yhi Zlo Zhi Volume Dt
370077 4322.08 -1.51012e+07 2.39227 1.10203e+06 -1.39992e+07 566.482 566.482 566.482 2216.76 2783.24 2216.76 2783.24 2216.76 2783.24 1.81786e+08 0.5
Loop time of 38.7806 on 4 procs for 200000 steps with 1000 atoms

unfix 3

fix 4 all nvt temp 370000 300 100.0

run 100000
Generated 0 of 1 mixed pair_coeff terms from geometric mixing rule
Step          Temp          Press          PotEng        Density         KinEng         TotEng           Lx             Ly             Lz            Xlo            Xhi            Ylo            Yhi            Zlo            Zhi           Volume           Dt            Time           CPU           T/CPU          S/CPU         CPULeft
31805000   353579.61      4342.2294     -15129633       2.3922697      1052899.7     -14076733       566.4825       566.4825       566.4825       2216.7588      2783.2412      2216.7588      2783.2412      2216.7588      2783.2412      1.8178561e+08  0.5            15905000       0              0              0              0
Averages over the last 251 of 501 rows, steps 31855000 to 31905000:
Temp Press PotEng Density KinEng TotEng Lx Ly Lz Xlo Xhi Ylo Yhi Zlo Zhi Volume Dt
93149.9 1257.09 -1.57879e+07 2.39227 277384 -1.55105e+07 566.482 566.482 566.482 2216.76 2783.24 2216.76 2783.24 2216.76 2783.24 1.81786e+08 0.5
Loop time of 19.1991 on 4 procs for 100000 steps with 1000 atoms

unfix 4

fix 5 all npt temp 300 300 $(100.0*dt) iso 1.0 1.0 $(1000.0*dt)
fix 5 all npt temp 300 300 50 iso 1.0 1.0 $(1000.0*dt)
fix 5 all npt temp 300 300 50 iso 1.0 1.0 500

run 300000
Generated 0 of 1 mixed pair_coeff terms from geometric mixing rule
Step          Temp          Press          PotEng        Density         KinEng         TotEng           Lx             Ly             Lz            Xlo            Xhi            Ylo            Yhi            Zlo            Zhi           Volume           Dt            Time           CPU           T/CPU          S/CPU         CPULeft
31905000   1400.0904      136.14118     -16038247       2.3922697      4169.2303     -16034078       566.4825       566.4825       566.4825       2216.7588      2783.2412      2216.7588      2783.2412      2216.7588      2783.2412      1.8178561e+08  0.5            15955000       0              0              0              0
Averages over the last 751 of 1501 rows, steps 32055000 to 32205000:
Temp Press PotEng Density KinEng TotEng Lx Ly Lz Xlo Xhi Ylo Yhi Zlo Zhi Volume Dt
300.128 0.927425 -1.61173e+07 2.39292 893.729 -1.61164e+07 566.431 566.431 566.431 2216.78 2783.22 2216.78 2783.22 2216.78 2783.22 1.81736e+08 0.5
Loop time of 68.8094 on 4 procs for 300000 steps with 1000 atoms

# run_style
run_style verlet

# write restart
write_restart ./pgnpmf/800200/equpmf46.res
System init for write_restart ...
Generated 0 of 1 mixed pair_coeff terms from geometric mixing rule
