LAMMPS (23 Jun 2022 - Update 1)
# Read restart
read_restart ./pgnpmf/800200/equpmf55.res
Reading restart file ...
  restart file = 23 Jun 2022, LAMMPS = 23 Jun 2022
  restoring atom style atomic from restart
  orthogonal box = (2216.916 2216.916 2216.916) to (2783.084 2783.084 2783.084)
  restoring pair style table from restart
  1000 atoms
  read_restart CPU = 0.012 seconds

# Settings

pair_style table spline 9941

pair_coeff 1 1 ./pgnpmf/N20.txt DE_GNP 75.6
pair_coeff 2 2 ./pgnpmf/N100.txt DE_GNP 115.92
pair_coeff 1 2 ./pgnpmf/mixed_potential.txt DE_GNP 95.66

#Neigh_list Calc Frequency

neigh_modify delay 0 every 1 check yes

# Saving Frequency (50 frames)

variable ts_save equal 5000

# Dump
#dump_modify 1 first no sort id
#dump 2 all cfg 50000 ./equilibration/trajectory/ovito/dumpgen.tens_*.cfg mass type xs ys zs fx fy fz

# thermo_style
thermo_style custom step temp press pe density ke etotal lx ly lz xlo xhi ylo yhi zlo zhi vol dt time cpu tpcpu spcpu cpuremain

# run info
timestep 0.5
thermo 200

# fix

fix 1 all momentum 1000 linear 1 1 1 angular
variable T equal 300
fix 2 all nvt temp 300 370000 100.0

run 100000
Generated 0 of 1 mixed pair_coeff terms from geometric mixing rule
Unused restart file global fix info:
  fix style: npt, fix ID: 5
  update every 1 steps, delay 0 steps, check yes
Step          Temp          Press          PotEng        Density         KinEng         TotEng           Lx             Ly             Lz            Xlo            Xhi            Ylo            Yhi            Zlo            Zhi           Volume           Dt            Time           CPU           T/CPU          S/CPU         CPULeft
38505000   301.61445      9.9863274     -16124105       2.3962591      898.15632     -16123207       566.16796      566.16796      566.16796      2216.916       2783.084       2216.916       2783.084       2216.916       2783.084       1.8148296e+08  0.5            19255000       0              0              0              0
Averages over the last 251 of 501 rows, steps 38555000 to 38605000:
Temp Press PotEng Density KinEng TotEng Lx Ly Lz Xlo Xhi Ylo Yhi Zlo Zhi Volume Dt
277314 3448.02 -1.53505e+07 2.39626 825795 -1.45247e+07 566.168 566.168 566.168 2216.92 2783.08 2216.92 2783.08 2216.92 2783.08 1.81483e+08 0.5
Loop time of 19.1667 on 4 procs for 100000 steps with 1000 atoms

unfix 2

fix 3 all nvt temp 370000 370000 $(100.0*dt) #iso 1.0 1.0 $(1000.0*dt)
fix 3 all nvt temp 370000 370000 50

run 200000
Generated 0 of 1 mixed pair_coeff terms from geometric mixing rule
Step          Temp          Press          PotEng        Density         KinEng         TotEng           Lx             Ly             Lz            Xlo            Xhi            Ylo            Yhi            Zlo            Zhi           Volume           Dt            Time           CPU           T/CPU          S/CPU         CPULeft
38605000   366675.3       4398.0215     -15012930       2.3962591      1091896.4     -13921034       566.16796      566.16796      566.16796      2216.916       2783.084       2216.916       2783.084       2216.916       2783.084       1.8148296e+08  0.5            19305000       0              0              0              0
Averages over the last 501 of 1001 rows, steps 38705000 to 38805000:
Temp Press PotEng Density KinEng TotEng Lx Ly Lz Xlo Xhi Ylo Yhi Zlo Zhi Volume Dt
370027 4298.45 -1.51189e+07 2.39626 1.10188e+06 -1.4017e+07 566.168 566.168 566.168 2216.92 2783.08 2216.92 2783.08 2216.92 2783.08 1.81483e+08 0.5
Loop time of 38.9242 on 4 procs for 200000 steps with 1000 atoms

unfix 3

fix 4 all nvt temp 370000 300 100.0

run 100000
Generated 0 of 1 mixed pair_coeff terms from geometric mixing rule
Step          Temp          Press          PotEng        Density         KinEng         TotEng           Lx             Ly             Lz            Xlo            Xhi            Ylo            Yhi            Zlo            Zhi           Volume           Dt            Time           CPU           T/CPU          S/CPU         CPULeft
38805000   370402.32      4331.2436     -15068584       2.3962591      1102994.9     -13965589       566.16796      566.16796      566.16796      2216.916       2783.084       2216.916       2783.084       2216.916       2783.084       1.8148296e+08  0.5            19405000       0              0              0              0
Averages over the last 251 of 501 rows, steps 38855000 to 38905000:
Temp Press PotEng Density KinEng TotEng Lx Ly Lz Xlo Xhi Ylo Yhi Zlo Zhi Volume Dt
92968.2 1220.08 -1.5814e+07 2.39626 276843 -1.55372e+07 566.168 566.168 566.168 2216.92 2783.08 2216.92 2783.08 2216.92 2783.08 1.81483e+08 0.5
Loop time of 19.3958 on 4 procs for 100000 steps with 1000 atoms

unfix 4

fix 5 all npt temp 300 300 $(100.0*dt) iso 1.0 1.0 $(1000.0*dt)
fix 5 all npt temp 300 300 50 iso 1.0 1.0 $(1000.0*dt)
fix 5 all npt temp 300 300 50 iso 1.0 1.0 500

run 300000
Generated 0 of 1 mixed pair_coeff terms from geometric mixing rule
Step          Temp          Press          PotEng        Density         KinEng         TotEng           Lx             Ly             Lz            Xlo            Xhi            Ylo            Yhi            Zlo            Zhi           Volume           Dt            Time           CPU           T/CPU          S/CPU         CPULeft
38905000   1398.3981      127.77451     -16048268       2.3962591      4164.1908     -16044104       566.16796      566.16796      566.16796      2216.916       2783.084       2216.916       2783.084       2216.916       2783.084       1.8148296e+08  0.5            19455000       0              0              0              0
Averages over the last 751 of 1501 rows, steps 39055000 to 39205000:
Temp Press PotEng Density KinEng TotEng Lx Ly Lz Xlo Xhi Ylo Yhi Zlo Zhi Volume Dt
300.165 0.502848 -1.61248e+07 2.39801 893.839 -1.61239e+07 566.03 566.03 566.03 2216.98 2783.02 2216.98 2783.02 2216.98 2783.02 1.81351e+08 0.5
Loop time of 68.5497 on 4 procs for 300000 steps with 1000 atoms

# run_style
run_style verlet

# write restart
write_restart ./pgnpmf/800200/equpmf56.res
System init for write_restart ...
Generated 0 of 1 mixed pair_coeff terms from geometric mixing rule
