LAMMPS (23 Jun 2022 - Update 1)
# Read restart
read_restart ./pgnpmf/800200/equpmf26.res
Reading restart file ...
  restart file = 23 Jun 2022, LAMMPS = 23 Jun 2022
  restoring atom style atomic from restart
  orthogonal box = (2216.1719 2216.1719 2216.1719) to (2783.8281 2783.8281 2783.8281)
  restoring pair style table from restart
  1000 atoms
  read_restart CPU = 0.016 seconds

# Settings

pair_style table spline 9941

pair_coeff 1 1 ./pgnpmf/N20.txt DE_GNP 75.6
pair_coeff 2 2 ./pgnpmf/N100.txt DE_GNP 115.92
pair_coeff 1 2 ./pgnpmf/mixed_potential.txt DE_GNP 95.66

#Neigh_list Calc Frequency

neigh_modify delay 0 every 1 check yes

# Saving Frequency (50 frames)

variable ts_save equal 5000

# Dump
#dump_modify 1 first no sort id
#dump 2 all cfg 50000 ./equilibration/trajectory/ovito/dumpgen.tens_*.cfg mass type xs ys zs fx fy fz

# thermo_style
thermo_style custom step temp press pe density ke etotal lx ly lz xlo xhi ylo yhi zlo zhi vol dt time cpu tpcpu spcpu cpuremain

# run info
timestep 0.5
thermo 200

# fix

fix 1 all momentum 1000 linear 1 1 1 angular
variable T equal 300
fix 2 all nvt temp 300 370000 100.0

run 100000
Generated 0 of 1 mixed pair_coeff terms from geometric mixing rule
Unused restart file global fix info:
  fix style: npt, fix ID: 5
  update every 1 steps, delay 0 steps, check yes
Step          Temp          Press          PotEng        Density         KinEng         TotEng           Lx             Ly             Lz            Xlo            Xhi            Ylo            Yhi            Zlo            Zhi           Volume           Dt            Time           CPU           T/CPU          S/CPU         CPULeft
18205000   295.69022     -0.93449171    -16067290       2.3774625      880.51497     -16066410       567.65611      567.65611      567.65611      2216.1719      2783.8281      2216.1719      2783.8281      2216.1719      2783.8281      1.829178e+08   0.5            9105000        0              0              0              0
Averages over the last 251 of 501 rows, steps 18255000 to 18305000:
Temp Press PotEng Density KinEng TotEng Lx Ly Lz Xlo Xhi Ylo Yhi Zlo Zhi Volume Dt
276924 3415.87 -1.54028e+07 2.37746 824631 -1.45782e+07 567.656 567.656 567.656 2216.17 2783.83 2216.17 2783.83 2216.17 2783.83 1.82918e+08 0.5
Loop time of 19.4944 on 4 procs for 100000 steps with 1000 atoms

unfix 2

fix 3 all nvt temp 370000 370000 $(100.0*dt) #iso 1.0 1.0 $(1000.0*dt)
fix 3 all nvt temp 370000 370000 50

run 200000
Generated 0 of 1 mixed pair_coeff terms from geometric mixing rule
Step          Temp          Press          PotEng        Density         KinEng         TotEng           Lx             Ly             Lz            Xlo            Xhi            Ylo            Yhi            Zlo            Zhi           Volume           Dt            Time           CPU           T/CPU          S/CPU         CPULeft
18305000   350947.03      4315.5218     -15140190       2.3774625      1045060.3     -14095130       567.65611      567.65611      567.65611      2216.1719      2783.8281      2216.1719      2783.8281      2216.1719      2783.8281      1.829178e+08   0.5            9155000        0              0              0              0
Averages over the last 501 of 1001 rows, steps 18405000 to 18505000:
Temp Press PotEng Density KinEng TotEng Lx Ly Lz Xlo Xhi Ylo Yhi Zlo Zhi Volume Dt
369990 4110.89 -1.5096e+07 2.37746 1.10177e+06 -1.39942e+07 567.656 567.656 567.656 2216.17 2783.83 2216.17 2783.83 2216.17 2783.83 1.82918e+08 0.5
Loop time of 39.2105 on 4 procs for 200000 steps with 1000 atoms

unfix 3

fix 4 all nvt temp 370000 300 100.0

run 100000
Generated 0 of 1 mixed pair_coeff terms from geometric mixing rule
Step          Temp          Press          PotEng        Density         KinEng         TotEng           Lx             Ly             Lz            Xlo            Xhi            Ylo            Yhi            Zlo            Zhi           Volume           Dt            Time           CPU           T/CPU          S/CPU         CPULeft
18505000   372718.34      4055.7119     -15093110       2.3774625      1109891.6     -13983218       567.65611      567.65611      567.65611      2216.1719      2783.8281      2216.1719      2783.8281      2216.1719      2783.8281      1.829178e+08   0.5            9255000        0              0              0              0
Averages over the last 251 of 501 rows, steps 18555000 to 18605000:
Temp Press PotEng Density KinEng TotEng Lx Ly Lz Xlo Xhi Ylo Yhi Zlo Zhi Volume Dt
93120.8 1161.65 -1.5816e+07 2.37746 277298 -1.55387e+07 567.656 567.656 567.656 2216.17 2783.83 2216.17 2783.83 2216.17 2783.83 1.82918e+08 0.5
Loop time of 19.3636 on 4 procs for 100000 steps with 1000 atoms

unfix 4

fix 5 all npt temp 300 300 $(100.0*dt) iso 1.0 1.0 $(1000.0*dt)
fix 5 all npt temp 300 300 50 iso 1.0 1.0 $(1000.0*dt)
fix 5 all npt temp 300 300 50 iso 1.0 1.0 500

run 300000
Generated 0 of 1 mixed pair_coeff terms from geometric mixing rule
Step          Temp          Press          PotEng        Density         KinEng         TotEng           Lx             Ly             Lz            Xlo            Xhi            Ylo            Yhi            Zlo            Zhi           Volume           Dt            Time           CPU           T/CPU          S/CPU         CPULeft
18605000   1405.5535      62.495457     -16076026       2.3774625      4185.4982     -16071840       567.65611      567.65611      567.65611      2216.1719      2783.8281      2216.1719      2783.8281      2216.1719      2783.8281      1.829178e+08   0.5            9305000        0              0              0              0
Averages over the last 751 of 1501 rows, steps 18755000 to 18905000:
Temp Press PotEng Density KinEng TotEng Lx Ly Lz Xlo Xhi Ylo Yhi Zlo Zhi Volume Dt
300.121 0.855365 -1.6144e+07 2.38129 893.709 -1.61432e+07 567.352 567.352 567.352 2216.32 2783.68 2216.32 2783.68 2216.32 2783.68 1.82624e+08 0.5
Loop time of 68.5606 on 4 procs for 300000 steps with 1000 atoms

# run_style
run_style verlet

# write restart
write_restart ./pgnpmf/800200/equpmf27.res
System init for write_restart ...
Generated 0 of 1 mixed pair_coeff terms from geometric mixing rule
