LAMMPS (23 Jun 2022 - Update 1)
# Read restart
read_restart ./pgnpmf/800200/equpmf29.res
Reading restart file ...
  restart file = 23 Jun 2022, LAMMPS = 23 Jun 2022
  restoring atom style atomic from restart
  orthogonal box = (2216.6412 2216.6412 2216.6412) to (2783.3588 2783.3588 2783.3588)
  restoring pair style table from restart
  1000 atoms
  read_restart CPU = 0.011 seconds

# Settings

pair_style table spline 9941

pair_coeff 1 1 ./pgnpmf/N20.txt DE_GNP 75.6
pair_coeff 2 2 ./pgnpmf/N100.txt DE_GNP 115.92
pair_coeff 1 2 ./pgnpmf/mixed_potential.txt DE_GNP 95.66

#Neigh_list Calc Frequency

neigh_modify delay 0 every 1 check yes

# Saving Frequency (50 frames)

variable ts_save equal 5000

# Dump
#dump_modify 1 first no sort id
#dump 2 all cfg 50000 ./equilibration/trajectory/ovito/dumpgen.tens_*.cfg mass type xs ys zs fx fy fz

# thermo_style
thermo_style custom step temp press pe density ke etotal lx ly lz xlo xhi ylo yhi zlo zhi vol dt time cpu tpcpu spcpu cpuremain

# run info
timestep 0.5
thermo 200

# fix

fix 1 all momentum 1000 linear 1 1 1 angular
variable T equal 300
fix 2 all nvt temp 300 370000 100.0

run 100000
Generated 0 of 1 mixed pair_coeff terms from geometric mixing rule
Unused restart file global fix info:
  fix style: npt, fix ID: 5
  update every 1 steps, delay 0 steps, check yes
Step          Temp          Press          PotEng        Density         KinEng         TotEng           Lx             Ly             Lz            Xlo            Xhi            Ylo            Yhi            Zlo            Zhi           Volume           Dt            Time           CPU           T/CPU          S/CPU         CPULeft
20305000   305.19384     -3.4072239     -16151437       2.3892941      908.81514     -16150528       566.71756      566.71756      566.71756      2216.6412      2783.3588      2216.6412      2783.3588      2216.6412      2783.3588      1.82012e+08    0.5            10155000       0              0              0              0
Averages over the last 251 of 501 rows, steps 20355000 to 20405000:
Temp Press PotEng Density KinEng TotEng Lx Ly Lz Xlo Xhi Ylo Yhi Zlo Zhi Volume Dt
277304 3430.81 -1.53984e+07 2.38929 825763 -1.45726e+07 566.718 566.718 566.718 2216.64 2783.36 2216.64 2783.36 2216.64 2783.36 1.82012e+08 0.5
Loop time of 19.6629 on 4 procs for 100000 steps with 1000 atoms

unfix 2

fix 3 all nvt temp 370000 370000 $(100.0*dt) #iso 1.0 1.0 $(1000.0*dt)
fix 3 all nvt temp 370000 370000 50

run 200000
Generated 0 of 1 mixed pair_coeff terms from geometric mixing rule
Step          Temp          Press          PotEng        Density         KinEng         TotEng           Lx             Ly             Lz            Xlo            Xhi            Ylo            Yhi            Zlo            Zhi           Volume           Dt            Time           CPU           T/CPU          S/CPU         CPULeft
20405000   350353.35      4300.1784     -15214268       2.3892941      1043292.5     -14170975       566.71756      566.71756      566.71756      2216.6412      2783.3588      2216.6412      2783.3588      2216.6412      2783.3588      1.82012e+08    0.5            10205000       0              0              0              0
Averages over the last 501 of 1001 rows, steps 20505000 to 20605000:
Temp Press PotEng Density KinEng TotEng Lx Ly Lz Xlo Xhi Ylo Yhi Zlo Zhi Volume Dt
370035 4234.24 -1.51403e+07 2.38929 1.1019e+06 -1.40384e+07 566.718 566.718 566.718 2216.64 2783.36 2216.64 2783.36 2216.64 2783.36 1.82012e+08 0.5
Loop time of 39.2783 on 4 procs for 200000 steps with 1000 atoms

unfix 3

fix 4 all nvt temp 370000 300 100.0

run 100000
Generated 0 of 1 mixed pair_coeff terms from geometric mixing rule
Step          Temp          Press          PotEng        Density         KinEng         TotEng           Lx             Ly             Lz            Xlo            Xhi            Ylo            Yhi            Zlo            Zhi           Volume           Dt            Time           CPU           T/CPU          S/CPU         CPULeft
20605000   372043.78      4191.663      -15088004       2.3892941      1107882.9     -13980122       566.71756      566.71756      566.71756      2216.6412      2783.3588      2216.6412      2783.3588      2216.6412      2783.3588      1.82012e+08    0.5            10305000       0              0              0              0
Averages over the last 251 of 501 rows, steps 20655000 to 20705000:
Temp Press PotEng Density KinEng TotEng Lx Ly Lz Xlo Xhi Ylo Yhi Zlo Zhi Volume Dt
92916.5 1228.27 -1.58494e+07 2.38929 276689 -1.55727e+07 566.718 566.718 566.718 2216.64 2783.36 2216.64 2783.36 2216.64 2783.36 1.82012e+08 0.5
Loop time of 19.696 on 4 procs for 100000 steps with 1000 atoms

unfix 4

fix 5 all npt temp 300 300 $(100.0*dt) iso 1.0 1.0 $(1000.0*dt)
fix 5 all npt temp 300 300 50 iso 1.0 1.0 $(1000.0*dt)
fix 5 all npt temp 300 300 50 iso 1.0 1.0 500

run 300000
Generated 0 of 1 mixed pair_coeff terms from geometric mixing rule
Step          Temp          Press          PotEng        Density         KinEng         TotEng           Lx             Ly             Lz            Xlo            Xhi            Ylo            Yhi            Zlo            Zhi           Volume           Dt            Time           CPU           T/CPU          S/CPU         CPULeft
20705000   1398.766       142.79364     -16082144       2.3892941      4165.2864     -16077978       566.71756      566.71756      566.71756      2216.6412      2783.3588      2216.6412      2783.3588      2216.6412      2783.3588      1.82012e+08    0.5            10355000       0              0              0              0
Averages over the last 751 of 1501 rows, steps 20855000 to 21005000:
Temp Press PotEng Density KinEng TotEng Lx Ly Lz Xlo Xhi Ylo Yhi Zlo Zhi Volume Dt
300.158 0.734372 -1.61719e+07 2.38811 893.818 -1.6171e+07 566.811 566.811 566.811 2216.59 2783.41 2216.59 2783.41 2216.59 2783.41 1.82102e+08 0.5
Loop time of 69.7367 on 4 procs for 300000 steps with 1000 atoms

# run_style
run_style verlet

# write restart
write_restart ./pgnpmf/800200/equpmf30.res
System init for write_restart ...
Generated 0 of 1 mixed pair_coeff terms from geometric mixing rule
