LAMMPS (23 Jun 2022 - Update 1)
# Read restart
read_restart ./pgnpmf/800200/equpmf43.res
Reading restart file ...
  restart file = 23 Jun 2022, LAMMPS = 23 Jun 2022
  restoring atom style atomic from restart
  orthogonal box = (2216.7016 2216.7016 2216.7016) to (2783.2984 2783.2984 2783.2984)
  restoring pair style table from restart
  1000 atoms
  read_restart CPU = 0.014 seconds

# Settings

pair_style table spline 9941

pair_coeff 1 1 ./pgnpmf/N20.txt DE_GNP 75.6
pair_coeff 2 2 ./pgnpmf/N100.txt DE_GNP 115.92
pair_coeff 1 2 ./pgnpmf/mixed_potential.txt DE_GNP 95.66

#Neigh_list Calc Frequency

neigh_modify delay 0 every 1 check yes

# Saving Frequency (50 frames)

variable ts_save equal 5000

# Dump
#dump_modify 1 first no sort id
#dump 2 all cfg 50000 ./equilibration/trajectory/ovito/dumpgen.tens_*.cfg mass type xs ys zs fx fy fz

# thermo_style
thermo_style custom step temp press pe density ke etotal lx ly lz xlo xhi ylo yhi zlo zhi vol dt time cpu tpcpu spcpu cpuremain

# run info
timestep 0.5
thermo 200

# fix

fix 1 all momentum 1000 linear 1 1 1 angular
variable T equal 300
fix 2 all nvt temp 300 370000 100.0

run 100000
Generated 0 of 1 mixed pair_coeff terms from geometric mixing rule
Unused restart file global fix info:
  fix style: npt, fix ID: 5
  update every 1 steps, delay 0 steps, check yes
Step          Temp          Press          PotEng        Density         KinEng         TotEng           Lx             Ly             Lz            Xlo            Xhi            Ylo            Yhi            Zlo            Zhi           Volume           Dt            Time           CPU           T/CPU          S/CPU         CPULeft
30105000   304.81733     -1.196848      -16108743       2.390823       907.69396     -16107835       566.59673      566.59673      566.59673      2216.7016      2783.2984      2216.7016      2783.2984      2216.7016      2783.2984      1.818956e+08   0.5            15055000       0              0              0              0
Averages over the last 251 of 501 rows, steps 30155000 to 30205000:
Temp Press PotEng Density KinEng TotEng Lx Ly Lz Xlo Xhi Ylo Yhi Zlo Zhi Volume Dt
277265 3319.08 -1.5356e+07 2.39082 825647 -1.45304e+07 566.597 566.597 566.597 2216.7 2783.3 2216.7 2783.3 2216.7 2783.3 1.81896e+08 0.5
Loop time of 17.9022 on 4 procs for 100000 steps with 1000 atoms

unfix 2

fix 3 all nvt temp 370000 370000 $(100.0*dt) #iso 1.0 1.0 $(1000.0*dt)
fix 3 all nvt temp 370000 370000 50

run 200000
Generated 0 of 1 mixed pair_coeff terms from geometric mixing rule
Step          Temp          Press          PotEng        Density         KinEng         TotEng           Lx             Ly             Lz            Xlo            Xhi            Ylo            Yhi            Zlo            Zhi           Volume           Dt            Time           CPU           T/CPU          S/CPU         CPULeft
30205000   362126.92      4154.7532     -15135140       2.390823       1078352.1     -14056788       566.59673      566.59673      566.59673      2216.7016      2783.2984      2216.7016      2783.2984      2216.7016      2783.2984      1.818956e+08   0.5            15105000       0              0              0              0
Averages over the last 501 of 1001 rows, steps 30305000 to 30405000:
Temp Press PotEng Density KinEng TotEng Lx Ly Lz Xlo Xhi Ylo Yhi Zlo Zhi Volume Dt
370009 4321.09 -1.51054e+07 2.39082 1.10182e+06 -1.40035e+07 566.597 566.597 566.597 2216.7 2783.3 2216.7 2783.3 2216.7 2783.3 1.81896e+08 0.5
Loop time of 36.2981 on 4 procs for 200000 steps with 1000 atoms

unfix 3

fix 4 all nvt temp 370000 300 100.0

run 100000
Generated 0 of 1 mixed pair_coeff terms from geometric mixing rule
Step          Temp          Press          PotEng        Density         KinEng         TotEng           Lx             Ly             Lz            Xlo            Xhi            Ylo            Yhi            Zlo            Zhi           Volume           Dt            Time           CPU           T/CPU          S/CPU         CPULeft
30405000   368026.22      4244.0346     -15175287       2.390823       1095919.2     -14079368       566.59673      566.59673      566.59673      2216.7016      2783.2984      2216.7016      2783.2984      2216.7016      2783.2984      1.818956e+08   0.5            15205000       0              0              0              0
Averages over the last 251 of 501 rows, steps 30455000 to 30505000:
Temp Press PotEng Density KinEng TotEng Lx Ly Lz Xlo Xhi Ylo Yhi Zlo Zhi Volume Dt
93006.4 1263.61 -1.58386e+07 2.39082 276957 -1.55617e+07 566.597 566.597 566.597 2216.7 2783.3 2216.7 2783.3 2216.7 2783.3 1.81896e+08 0.5
Loop time of 18.0687 on 4 procs for 100000 steps with 1000 atoms

unfix 4

fix 5 all npt temp 300 300 $(100.0*dt) iso 1.0 1.0 $(1000.0*dt)
fix 5 all npt temp 300 300 50 iso 1.0 1.0 $(1000.0*dt)
fix 5 all npt temp 300 300 50 iso 1.0 1.0 500

run 300000
Generated 0 of 1 mixed pair_coeff terms from geometric mixing rule
Step          Temp          Press          PotEng        Density         KinEng         TotEng           Lx             Ly             Lz            Xlo            Xhi            Ylo            Yhi            Zlo            Zhi           Volume           Dt            Time           CPU           T/CPU          S/CPU         CPULeft
30505000   1393.2434      166.17687     -16061973       2.390823       4148.8409     -16057824       566.59673      566.59673      566.59673      2216.7016      2783.2984      2216.7016      2783.2984      2216.7016      2783.2984      1.818956e+08   0.5            15255000       0              0              0              0
Averages over the last 751 of 1501 rows, steps 30655000 to 30805000:
Temp Press PotEng Density KinEng TotEng Lx Ly Lz Xlo Xhi Ylo Yhi Zlo Zhi Volume Dt
300.016 0.582803 -1.61182e+07 2.39022 893.396 -1.61173e+07 566.644 566.644 566.644 2216.68 2783.32 2216.68 2783.32 2216.68 2783.32 1.81942e+08 0.5
Loop time of 64.6576 on 4 procs for 300000 steps with 1000 atoms

# run_style
run_style verlet

# write restart
write_restart ./pgnpmf/800200/equpmf44.res
System init for write_restart ...
Generated 0 of 1 mixed pair_coeff terms from geometric mixing rule
