LAMMPS (23 Jun 2022 - Update 1)
# Read restart
read_restart ./pgnpmf/800200/equpmf25.res
Reading restart file ...
  restart file = 23 Jun 2022, LAMMPS = 23 Jun 2022
  restoring atom style atomic from restart
  orthogonal box = (2216.3158 2216.3158 2216.3158) to (2783.6842 2783.6842 2783.6842)
  restoring pair style table from restart
  1000 atoms
  read_restart CPU = 0.013 seconds

# Settings

pair_style table spline 9941

pair_coeff 1 1 ./pgnpmf/N20.txt DE_GNP 75.6
pair_coeff 2 2 ./pgnpmf/N100.txt DE_GNP 115.92
pair_coeff 1 2 ./pgnpmf/mixed_potential.txt DE_GNP 95.66

#Neigh_list Calc Frequency

neigh_modify delay 0 every 1 check yes

# Saving Frequency (50 frames)

variable ts_save equal 5000

# Dump
#dump_modify 1 first no sort id
#dump 2 all cfg 50000 ./equilibration/trajectory/ovito/dumpgen.tens_*.cfg mass type xs ys zs fx fy fz

# thermo_style
thermo_style custom step temp press pe density ke etotal lx ly lz xlo xhi ylo yhi zlo zhi vol dt time cpu tpcpu spcpu cpuremain

# run info
timestep 0.5
thermo 200

# fix

fix 1 all momentum 1000 linear 1 1 1 angular
variable T equal 300
fix 2 all nvt temp 300 370000 100.0

run 100000
Generated 0 of 1 mixed pair_coeff terms from geometric mixing rule
Unused restart file global fix info:
  fix style: npt, fix ID: 5
  update every 1 steps, delay 0 steps, check yes
Step          Temp          Press          PotEng        Density         KinEng         TotEng           Lx             Ly             Lz            Xlo            Xhi            Ylo            Yhi            Zlo            Zhi           Volume           Dt            Time           CPU           T/CPU          S/CPU         CPULeft
17505000   317.972        2.9845448     -16170878       2.3810813      946.86631     -16169931       567.36839      567.36839      567.36839      2216.3158      2783.6842      2216.3158      2783.6842      2216.3158      2783.6842      1.8263979e+08  0.5            8755000        0              0              0              0
Averages over the last 251 of 501 rows, steps 17555000 to 17605000:
Temp Press PotEng Density KinEng TotEng Lx Ly Lz Xlo Xhi Ylo Yhi Zlo Zhi Volume Dt
277767 3398.22 -1.53829e+07 2.38108 827144 -1.45557e+07 567.368 567.368 567.368 2216.32 2783.68 2216.32 2783.68 2216.32 2783.68 1.8264e+08 0.5
Loop time of 19.0836 on 4 procs for 100000 steps with 1000 atoms

unfix 2

fix 3 all nvt temp 370000 370000 $(100.0*dt) #iso 1.0 1.0 $(1000.0*dt)
fix 3 all nvt temp 370000 370000 50

run 200000
Generated 0 of 1 mixed pair_coeff terms from geometric mixing rule
Step          Temp          Press          PotEng        Density         KinEng         TotEng           Lx             Ly             Lz            Xlo            Xhi            Ylo            Yhi            Zlo            Zhi           Volume           Dt            Time           CPU           T/CPU          S/CPU         CPULeft
17605000   376450.82      4095.6683     -15200262       2.3810813      1121006.3     -14079256       567.36839      567.36839      567.36839      2216.3158      2783.6842      2216.3158      2783.6842      2216.3158      2783.6842      1.8263979e+08  0.5            8805000        0              0              0              0
Averages over the last 501 of 1001 rows, steps 17705000 to 17805000:
Temp Press PotEng Density KinEng TotEng Lx Ly Lz Xlo Xhi Ylo Yhi Zlo Zhi Volume Dt
369983 4228.22 -1.5132e+07 2.38108 1.10175e+06 -1.40303e+07 567.368 567.368 567.368 2216.32 2783.68 2216.32 2783.68 2216.32 2783.68 1.8264e+08 0.5
Loop time of 38.275 on 4 procs for 200000 steps with 1000 atoms

unfix 3

fix 4 all nvt temp 370000 300 100.0

run 100000
Generated 0 of 1 mixed pair_coeff terms from geometric mixing rule
Step          Temp          Press          PotEng        Density         KinEng         TotEng           Lx             Ly             Lz            Xlo            Xhi            Ylo            Yhi            Zlo            Zhi           Volume           Dt            Time           CPU           T/CPU          S/CPU         CPULeft
17805000   351100.47      4159.8946     -15112288       2.3810813      1045517.2     -14066771       567.36839      567.36839      567.36839      2216.3158      2783.6842      2216.3158      2783.6842      2216.3158      2783.6842      1.8263979e+08  0.5            8905000        0              0              0              0
Averages over the last 251 of 501 rows, steps 17855000 to 17905000:
Temp Press PotEng Density KinEng TotEng Lx Ly Lz Xlo Xhi Ylo Yhi Zlo Zhi Volume Dt
93110.2 1380.47 -1.57859e+07 2.38108 277266 -1.55087e+07 567.368 567.368 567.368 2216.32 2783.68 2216.32 2783.68 2216.32 2783.68 1.8264e+08 0.5
Loop time of 19.1299 on 4 procs for 100000 steps with 1000 atoms

unfix 4

fix 5 all npt temp 300 300 $(100.0*dt) iso 1.0 1.0 $(1000.0*dt)
fix 5 all npt temp 300 300 50 iso 1.0 1.0 $(1000.0*dt)
fix 5 all npt temp 300 300 50 iso 1.0 1.0 500

run 300000
Generated 0 of 1 mixed pair_coeff terms from geometric mixing rule
Step          Temp          Press          PotEng        Density         KinEng         TotEng           Lx             Ly             Lz            Xlo            Xhi            Ylo            Yhi            Zlo            Zhi           Volume           Dt            Time           CPU           T/CPU          S/CPU         CPULeft
17905000   1393.5845      255.81152     -16032938       2.3810813      4149.8567     -16028788       567.36839      567.36839      567.36839      2216.3158      2783.6842      2216.3158      2783.6842      2216.3158      2783.6842      1.8263979e+08  0.5            8955000        0              0              0              0
Averages over the last 751 of 1501 rows, steps 18055000 to 18205000:
Temp Press PotEng Density KinEng TotEng Lx Ly Lz Xlo Xhi Ylo Yhi Zlo Zhi Volume Dt
300.256 1.17012 -1.60704e+07 2.37717 894.11 -1.60695e+07 567.679 567.679 567.679 2216.16 2783.84 2216.16 2783.84 2216.16 2783.84 1.8294e+08 0.5
Loop time of 68.2255 on 4 procs for 300000 steps with 1000 atoms

# run_style
run_style verlet

# write restart
write_restart ./pgnpmf/800200/equpmf26.res
System init for write_restart ...
Generated 0 of 1 mixed pair_coeff terms from geometric mixing rule
