LAMMPS (23 Jun 2022 - Update 1)
# Read restart
read_restart ./pgnpmf/800200/equpmf67.res
Reading restart file ...
  restart file = 23 Jun 2022, LAMMPS = 23 Jun 2022
  restoring atom style atomic from restart
  orthogonal box = (2216.9901 2216.9901 2216.9901) to (2783.0099 2783.0099 2783.0099)
  restoring pair style table from restart
  1000 atoms
  read_restart CPU = 0.017 seconds

# Settings

pair_style table spline 9941

pair_coeff 1 1 ./pgnpmf/N20.txt DE_GNP 75.6
pair_coeff 2 2 ./pgnpmf/N100.txt DE_GNP 115.92
pair_coeff 1 2 ./pgnpmf/mixed_potential.txt DE_GNP 95.66

#Neigh_list Calc Frequency

neigh_modify delay 0 every 1 check yes

# Saving Frequency (50 frames)

variable ts_save equal 5000

# Dump
#dump_modify 1 first no sort id
#dump 2 all cfg 50000 ./equilibration/trajectory/ovito/dumpgen.tens_*.cfg mass type xs ys zs fx fy fz

# thermo_style
thermo_style custom step temp press pe density ke etotal lx ly lz xlo xhi ylo yhi zlo zhi vol dt time cpu tpcpu spcpu cpuremain

# run info
timestep 0.5
thermo 200

# fix

fix 1 all momentum 1000 linear 1 1 1 angular
variable T equal 300
fix 2 all nvt temp 300 370000 100.0

run 100000
Generated 0 of 1 mixed pair_coeff terms from geometric mixing rule
Unused restart file global fix info:
  fix style: npt, fix ID: 5
  update every 1 steps, delay 0 steps, check yes
Step          Temp          Press          PotEng        Density         KinEng         TotEng           Lx             Ly             Lz            Xlo            Xhi            Ylo            Yhi            Zlo            Zhi           Volume           Dt            Time           CPU           T/CPU          S/CPU         CPULeft
46905000   307.68021      4.45564       -16187359       2.3981411      916.21911     -16186443       566.01981      566.01981      566.01981      2216.9901      2783.0099      2216.9901      2783.0099      2216.9901      2783.0099      1.8134054e+08  0.5            23455000       0              0              0              0
Averages over the last 251 of 501 rows, steps 46955000 to 47005000:
Temp Press PotEng Density KinEng TotEng Lx Ly Lz Xlo Xhi Ylo Yhi Zlo Zhi Volume Dt
277086 3363.96 -1.53963e+07 2.39814 825116 -1.45711e+07 566.02 566.02 566.02 2216.99 2783.01 2216.99 2783.01 2216.99 2783.01 1.81341e+08 0.5
Loop time of 17.5117 on 4 procs for 100000 steps with 1000 atoms

unfix 2

fix 3 all nvt temp 370000 370000 $(100.0*dt) #iso 1.0 1.0 $(1000.0*dt)
fix 3 all nvt temp 370000 370000 50

run 200000
Generated 0 of 1 mixed pair_coeff terms from geometric mixing rule
Step          Temp          Press          PotEng        Density         KinEng         TotEng           Lx             Ly             Lz            Xlo            Xhi            Ylo            Yhi            Zlo            Zhi           Volume           Dt            Time           CPU           T/CPU          S/CPU         CPULeft
47005000   377763.89      4217.7748     -15162333       2.3981411      1124916.3     -14037417       566.01981      566.01981      566.01981      2216.9901      2783.0099      2216.9901      2783.0099      2216.9901      2783.0099      1.8134054e+08  0.5            23505000       0              0              0              0
Averages over the last 501 of 1001 rows, steps 47105000 to 47205000:
Temp Press PotEng Density KinEng TotEng Lx Ly Lz Xlo Xhi Ylo Yhi Zlo Zhi Volume Dt
369972 4222.9 -1.51356e+07 2.39814 1.10171e+06 -1.40339e+07 566.02 566.02 566.02 2216.99 2783.01 2216.99 2783.01 2216.99 2783.01 1.81341e+08 0.5
Loop time of 35.3722 on 4 procs for 200000 steps with 1000 atoms

unfix 3

fix 4 all nvt temp 370000 300 100.0

run 100000
Generated 0 of 1 mixed pair_coeff terms from geometric mixing rule
Step          Temp          Press          PotEng        Density         KinEng         TotEng           Lx             Ly             Lz            Xlo            Xhi            Ylo            Yhi            Zlo            Zhi           Volume           Dt            Time           CPU           T/CPU          S/CPU         CPULeft
47205000   391918.37      4276.624      -15108702       2.3981411      1167066       -13941636       566.01981      566.01981      566.01981      2216.9901      2783.0099      2216.9901      2783.0099      2216.9901      2783.0099      1.8134054e+08  0.5            23605000       0              0              0              0
Averages over the last 251 of 501 rows, steps 47255000 to 47305000:
Temp Press PotEng Density KinEng TotEng Lx Ly Lz Xlo Xhi Ylo Yhi Zlo Zhi Volume Dt
93145.4 1186.53 -1.58654e+07 2.39814 277371 -1.5588e+07 566.02 566.02 566.02 2216.99 2783.01 2216.99 2783.01 2216.99 2783.01 1.81341e+08 0.5
Loop time of 17.6825 on 4 procs for 100000 steps with 1000 atoms

unfix 4

fix 5 all npt temp 300 300 $(100.0*dt) iso 1.0 1.0 $(1000.0*dt)
fix 5 all npt temp 300 300 50 iso 1.0 1.0 $(1000.0*dt)
fix 5 all npt temp 300 300 50 iso 1.0 1.0 500

run 300000
Generated 0 of 1 mixed pair_coeff terms from geometric mixing rule
Step          Temp          Press          PotEng        Density         KinEng         TotEng           Lx             Ly             Lz            Xlo            Xhi            Ylo            Yhi            Zlo            Zhi           Volume           Dt            Time           CPU           T/CPU          S/CPU         CPULeft
47305000   1404.0761      77.460393     -16115478       2.3981411      4181.0989     -16111297       566.01981      566.01981      566.01981      2216.9901      2783.0099      2216.9901      2783.0099      2216.9901      2783.0099      1.8134054e+08  0.5            23655000       0              0              0              0
Averages over the last 751 of 1501 rows, steps 47455000 to 47605000:
Temp Press PotEng Density KinEng TotEng Lx Ly Lz Xlo Xhi Ylo Yhi Zlo Zhi Volume Dt
299.978 1.19985 -1.61494e+07 2.39935 893.283 -1.61485e+07 565.925 565.925 565.925 2217.04 2782.96 2217.04 2782.96 2217.04 2782.96 1.81249e+08 0.5
Loop time of 63.0218 on 4 procs for 300000 steps with 1000 atoms

# run_style
run_style verlet

# write restart
write_restart ./pgnpmf/800200/equpmf68.res
System init for write_restart ...
Generated 0 of 1 mixed pair_coeff terms from geometric mixing rule
