LAMMPS (23 Jun 2022 - Update 1)
# Read restart
read_restart ./pgnpmf/800200/equpmf32.res
Reading restart file ...
  restart file = 23 Jun 2022, LAMMPS = 23 Jun 2022
  restoring atom style atomic from restart
  orthogonal box = (2216.5579 2216.5579 2216.5579) to (2783.4421 2783.4421 2783.4421)
  restoring pair style table from restart
  1000 atoms
  read_restart CPU = 0.013 seconds

# Settings

pair_style table spline 9941

pair_coeff 1 1 ./pgnpmf/N20.txt DE_GNP 75.6
pair_coeff 2 2 ./pgnpmf/N100.txt DE_GNP 115.92
pair_coeff 1 2 ./pgnpmf/mixed_potential.txt DE_GNP 95.66

#Neigh_list Calc Frequency

neigh_modify delay 0 every 1 check yes

# Saving Frequency (50 frames)

variable ts_save equal 5000

# Dump
#dump_modify 1 first no sort id
#dump 2 all cfg 50000 ./equilibration/trajectory/ovito/dumpgen.tens_*.cfg mass type xs ys zs fx fy fz

# thermo_style
thermo_style custom step temp press pe density ke etotal lx ly lz xlo xhi ylo yhi zlo zhi vol dt time cpu tpcpu spcpu cpuremain

# run info
timestep 0.5
thermo 200

# fix

fix 1 all momentum 1000 linear 1 1 1 angular
variable T equal 300
fix 2 all nvt temp 300 370000 100.0

run 100000
Generated 0 of 1 mixed pair_coeff terms from geometric mixing rule
Unused restart file global fix info:
  fix style: npt, fix ID: 5
  update every 1 steps, delay 0 steps, check yes
Step          Temp          Press          PotEng        Density         KinEng         TotEng           Lx             Ly             Lz            Xlo            Xhi            Ylo            Yhi            Zlo            Zhi           Volume           Dt            Time           CPU           T/CPU          S/CPU         CPULeft
22405000   283.82463     -7.8211706     -16158448       2.3871887      845.18128     -16157603       566.88412      566.88412      566.88412      2216.5579      2783.4421      2216.5579      2783.4421      2216.5579      2783.4421      1.8217253e+08  0.5            11205000       0              0              0              0
Averages over the last 251 of 501 rows, steps 22455000 to 22505000:
Temp Press PotEng Density KinEng TotEng Lx Ly Lz Xlo Xhi Ylo Yhi Zlo Zhi Volume Dt
277536 3335.91 -1.54243e+07 2.38719 826455 -1.45978e+07 566.884 566.884 566.884 2216.56 2783.44 2216.56 2783.44 2216.56 2783.44 1.82173e+08 0.5
Loop time of 17.226 on 4 procs for 100000 steps with 1000 atoms

unfix 2

fix 3 all nvt temp 370000 370000 $(100.0*dt) #iso 1.0 1.0 $(1000.0*dt)
fix 3 all nvt temp 370000 370000 50

run 200000
Generated 0 of 1 mixed pair_coeff terms from geometric mixing rule
Step          Temp          Press          PotEng        Density         KinEng         TotEng           Lx             Ly             Lz            Xlo            Xhi            Ylo            Yhi            Zlo            Zhi           Volume           Dt            Time           CPU           T/CPU          S/CPU         CPULeft
22505000   372831.96      4150.4874     -15226208       2.3871887      1110229.9     -14115978       566.88412      566.88412      566.88412      2216.5579      2783.4421      2216.5579      2783.4421      2216.5579      2783.4421      1.8217253e+08  0.5            11255000       0              0              0              0
Averages over the last 501 of 1001 rows, steps 22605000 to 22705000:
Temp Press PotEng Density KinEng TotEng Lx Ly Lz Xlo Xhi Ylo Yhi Zlo Zhi Volume Dt
369884 4174.93 -1.51446e+07 2.38719 1.10145e+06 -1.40432e+07 566.884 566.884 566.884 2216.56 2783.44 2216.56 2783.44 2216.56 2783.44 1.82173e+08 0.5
Loop time of 34.8217 on 4 procs for 200000 steps with 1000 atoms

unfix 3

fix 4 all nvt temp 370000 300 100.0

run 100000
Generated 0 of 1 mixed pair_coeff terms from geometric mixing rule
Step          Temp          Press          PotEng        Density         KinEng         TotEng           Lx             Ly             Lz            Xlo            Xhi            Ylo            Yhi            Zlo            Zhi           Volume           Dt            Time           CPU           T/CPU          S/CPU         CPULeft
22705000   363358.84      4165.8558     -15233459       2.3871887      1082020.6     -14151438       566.88412      566.88412      566.88412      2216.5579      2783.4421      2216.5579      2783.4421      2216.5579      2783.4421      1.8217253e+08  0.5            11355000       0              0              0              0
Averages over the last 251 of 501 rows, steps 22755000 to 22805000:
Temp Press PotEng Density KinEng TotEng Lx Ly Lz Xlo Xhi Ylo Yhi Zlo Zhi Volume Dt
92922.1 1142.98 -1.59009e+07 2.38719 276706 -1.56242e+07 566.884 566.884 566.884 2216.56 2783.44 2216.56 2783.44 2216.56 2783.44 1.82173e+08 0.5
Loop time of 17.305 on 4 procs for 100000 steps with 1000 atoms

unfix 4

fix 5 all npt temp 300 300 $(100.0*dt) iso 1.0 1.0 $(1000.0*dt)
fix 5 all npt temp 300 300 50 iso 1.0 1.0 $(1000.0*dt)
fix 5 all npt temp 300 300 50 iso 1.0 1.0 500

run 300000
Generated 0 of 1 mixed pair_coeff terms from geometric mixing rule
Step          Temp          Press          PotEng        Density         KinEng         TotEng           Lx             Ly             Lz            Xlo            Xhi            Ylo            Yhi            Zlo            Zhi           Volume           Dt            Time           CPU           T/CPU          S/CPU         CPULeft
22805000   1387.17        24.153379     -16161211       2.3871887      4130.7554     -16157081       566.88412      566.88412      566.88412      2216.5579      2783.4421      2216.5579      2783.4421      2216.5579      2783.4421      1.8217253e+08  0.5            11405000       0              0              0              0
Averages over the last 751 of 1501 rows, steps 22955000 to 23105000:
Temp Press PotEng Density KinEng TotEng Lx Ly Lz Xlo Xhi Ylo Yhi Zlo Zhi Volume Dt
300.153 1.30182 -1.61888e+07 2.39239 893.803 -1.61879e+07 566.473 566.473 566.473 2216.76 2783.24 2216.76 2783.24 2216.76 2783.24 1.81776e+08 0.5
Loop time of 62.0098 on 4 procs for 300000 steps with 1000 atoms

# run_style
run_style verlet

# write restart
write_restart ./pgnpmf/800200/equpmf33.res
System init for write_restart ...
Generated 0 of 1 mixed pair_coeff terms from geometric mixing rule
