LAMMPS (23 Jun 2022 - Update 1)
# Read restart
read_restart ./pgnpmf/800200/equpmf39.res
Reading restart file ...
  restart file = 23 Jun 2022, LAMMPS = 23 Jun 2022
  restoring atom style atomic from restart
  orthogonal box = (2216.725 2216.725 2216.725) to (2783.275 2783.275 2783.275)
  restoring pair style table from restart
  1000 atoms
  read_restart CPU = 0.012 seconds

# Settings

pair_style table spline 9941

pair_coeff 1 1 ./pgnpmf/N20.txt DE_GNP 75.6
pair_coeff 2 2 ./pgnpmf/N100.txt DE_GNP 115.92
pair_coeff 1 2 ./pgnpmf/mixed_potential.txt DE_GNP 95.66

#Neigh_list Calc Frequency

neigh_modify delay 0 every 1 check yes

# Saving Frequency (50 frames)

variable ts_save equal 5000

# Dump
#dump_modify 1 first no sort id
#dump 2 all cfg 50000 ./equilibration/trajectory/ovito/dumpgen.tens_*.cfg mass type xs ys zs fx fy fz

# thermo_style
thermo_style custom step temp press pe density ke etotal lx ly lz xlo xhi ylo yhi zlo zhi vol dt time cpu tpcpu spcpu cpuremain

# run info
timestep 0.5
thermo 200

# fix

fix 1 all momentum 1000 linear 1 1 1 angular
variable T equal 300
fix 2 all nvt temp 300 370000 100.0

run 100000
Generated 0 of 1 mixed pair_coeff terms from geometric mixing rule
Unused restart file global fix info:
  fix style: npt, fix ID: 5
  update every 1 steps, delay 0 steps, check yes
Step          Temp          Press          PotEng        Density         KinEng         TotEng           Lx             Ly             Lz            Xlo            Xhi            Ylo            Yhi            Zlo            Zhi           Volume           Dt            Time           CPU           T/CPU          S/CPU         CPULeft
27305000   290.39764     -3.8213139     -16195422       2.3914149      864.7546      -16194558       566.54999      566.54999      566.54999      2216.725       2783.275       2216.725       2783.275       2216.725       2783.275       1.8185059e+08  0.5            13655000       0              0              0              0
Averages over the last 251 of 501 rows, steps 27355000 to 27405000:
Temp Press PotEng Density KinEng TotEng Lx Ly Lz Xlo Xhi Ylo Yhi Zlo Zhi Volume Dt
277500 3502.85 -1.5452e+07 2.39141 826346 -1.46256e+07 566.55 566.55 566.55 2216.72 2783.28 2216.72 2783.28 2216.72 2783.28 1.81851e+08 0.5
Loop time of 17.6657 on 4 procs for 100000 steps with 1000 atoms

unfix 2

fix 3 all nvt temp 370000 370000 $(100.0*dt) #iso 1.0 1.0 $(1000.0*dt)
fix 3 all nvt temp 370000 370000 50

run 200000
Generated 0 of 1 mixed pair_coeff terms from geometric mixing rule
Step          Temp          Press          PotEng        Density         KinEng         TotEng           Lx             Ly             Lz            Xlo            Xhi            Ylo            Yhi            Zlo            Zhi           Volume           Dt            Time           CPU           T/CPU          S/CPU         CPULeft
27405000   387448.84      4327.1478     -15170332       2.3914149      1153756.5     -14016575       566.54999      566.54999      566.54999      2216.725       2783.275       2216.725       2783.275       2216.725       2783.275       1.8185059e+08  0.5            13705000       0              0              0              0
Averages over the last 501 of 1001 rows, steps 27505000 to 27605000:
Temp Press PotEng Density KinEng TotEng Lx Ly Lz Xlo Xhi Ylo Yhi Zlo Zhi Volume Dt
370271 4255.6 -1.5164e+07 2.39141 1.1026e+06 -1.40614e+07 566.55 566.55 566.55 2216.72 2783.28 2216.72 2783.28 2216.72 2783.28 1.81851e+08 0.5
Loop time of 35.881 on 4 procs for 200000 steps with 1000 atoms

unfix 3

fix 4 all nvt temp 370000 300 100.0

run 100000
Generated 0 of 1 mixed pair_coeff terms from geometric mixing rule
Step          Temp          Press          PotEng        Density         KinEng         TotEng           Lx             Ly             Lz            Xlo            Xhi            Ylo            Yhi            Zlo            Zhi           Volume           Dt            Time           CPU           T/CPU          S/CPU         CPULeft
27605000   368128.57      4440.6242     -15053619       2.3914149      1096224       -13957395       566.54999      566.54999      566.54999      2216.725       2783.275       2216.725       2783.275       2216.725       2783.275       1.8185059e+08  0.5            13805000       0              0              0              0
Averages over the last 251 of 501 rows, steps 27655000 to 27705000:
Temp Press PotEng Density KinEng TotEng Lx Ly Lz Xlo Xhi Ylo Yhi Zlo Zhi Volume Dt
93127.7 1266.15 -1.58582e+07 2.39141 277318 -1.55809e+07 566.55 566.55 566.55 2216.72 2783.28 2216.72 2783.28 2216.72 2783.28 1.81851e+08 0.5
Loop time of 17.8769 on 4 procs for 100000 steps with 1000 atoms

unfix 4

fix 5 all npt temp 300 300 $(100.0*dt) iso 1.0 1.0 $(1000.0*dt)
fix 5 all npt temp 300 300 50 iso 1.0 1.0 $(1000.0*dt)
fix 5 all npt temp 300 300 50 iso 1.0 1.0 500

run 300000
Generated 0 of 1 mixed pair_coeff terms from geometric mixing rule
Step          Temp          Press          PotEng        Density         KinEng         TotEng           Lx             Ly             Lz            Xlo            Xhi            Ylo            Yhi            Zlo            Zhi           Volume           Dt            Time           CPU           T/CPU          S/CPU         CPULeft
27705000   1406.7784      152.25599     -16117298       2.3914149      4189.1457     -16113109       566.54999      566.54999      566.54999      2216.725       2783.275       2216.725       2783.275       2216.725       2783.275       1.8185059e+08  0.5            13855000       0              0              0              0
Averages over the last 751 of 1501 rows, steps 27855000 to 28005000:
Temp Press PotEng Density KinEng TotEng Lx Ly Lz Xlo Xhi Ylo Yhi Zlo Zhi Volume Dt
300.319 0.882364 -1.62006e+07 2.39193 894.299 -1.61997e+07 566.509 566.509 566.509 2216.75 2783.25 2216.75 2783.25 2216.75 2783.25 1.81811e+08 0.5
Loop time of 63.128 on 4 procs for 300000 steps with 1000 atoms

# run_style
run_style verlet

# write restart
write_restart ./pgnpmf/800200/equpmf40.res
System init for write_restart ...
Generated 0 of 1 mixed pair_coeff terms from geometric mixing rule
