LAMMPS (23 Jun 2022 - Update 1)
# Read restart
read_restart ./pgnpmf/800200/equpmf3.res
Reading restart file ...
  restart file = 23 Jun 2022, LAMMPS = 23 Jun 2022
  restoring atom style atomic from restart
  orthogonal box = (1800.3366 1800.3366 1800.3366) to (3199.6634 3199.6634 3199.6634)
  restoring pair style table from restart
  1000 atoms
  read_restart CPU = 0.013 seconds

# Settings

pair_style table spline 9941

pair_coeff 1 1 ./pgnpmf/N20.txt DE_GNP 75.6
pair_coeff 2 2 ./pgnpmf/N100.txt DE_GNP 115.92
pair_coeff 1 2 ./pgnpmf/mixed_potential.txt DE_GNP 95.66

#Neigh_list Calc Frequency

neigh_modify delay 0 every 1 check yes

# Saving Frequency (50 frames)

variable ts_save equal 5000

# Dump
#dump_modify 1 first no sort id
#dump 2 all cfg 50000 ./equilibration/trajectory/ovito/dumpgen.tens_*.cfg mass type xs ys zs fx fy fz

# thermo_style
thermo_style custom step temp press pe density ke etotal lx ly lz xlo xhi ylo yhi zlo zhi vol dt time cpu tpcpu spcpu cpuremain

# run info
timestep 0.5
thermo 200

# fix

fix 1 all momentum 1000 linear 1 1 1 angular
variable T equal 300
fix 2 all nvt temp 300 370000 100.0

run 100000
Generated 0 of 1 mixed pair_coeff terms from geometric mixing rule
Unused restart file global fix info:
  fix style: npt, fix ID: 5
  update every 1 steps, delay 0 steps, check yes
Step          Temp          Press          PotEng        Density         KinEng         TotEng           Lx             Ly             Lz            Xlo            Xhi            Ylo            Yhi            Zlo            Zhi           Volume           Dt            Time           CPU           T/CPU          S/CPU         CPULeft
2105000   311.61252      0.94347225    -1863704.7      0.15871289     927.92889     -1862776.7      1399.3268      1399.3268      1399.3268      1800.3366      3199.6634      1800.3366      3199.6634      1800.3366      3199.6634      2.7400434e+09  0.5            1055000        0              0              0              0
Averages over the last 251 of 501 rows, steps 2155000 to 2205000:
Temp Press PotEng Density KinEng TotEng Lx Ly Lz Xlo Xhi Ylo Yhi Zlo Zhi Volume Dt
276996 12.4928 -1.57235e+06 0.158713 824846 -747503 1399.33 1399.33 1399.33 1800.34 3199.66 1800.34 3199.66 1800.34 3199.66 2.74004e+09 0.5
Loop time of 6.14191 on 4 procs for 100000 steps with 1000 atoms

unfix 2

fix 3 all nvt temp 370000 370000 $(100.0*dt) #iso 1.0 1.0 $(1000.0*dt)
fix 3 all nvt temp 370000 370000 50

run 200000
Generated 0 of 1 mixed pair_coeff terms from geometric mixing rule
Step          Temp          Press          PotEng        Density         KinEng         TotEng           Lx             Ly             Lz            Xlo            Xhi            Ylo            Yhi            Zlo            Zhi           Volume           Dt            Time           CPU           T/CPU          S/CPU         CPULeft
2205000   374298.04      21.415574     -1478774.9      0.15871289     1114595.7     -364179.23      1399.3268      1399.3268      1399.3268      1800.3366      3199.6634      1800.3366      3199.6634      1800.3366      3199.6634      2.7400434e+09  0.5            1105000        0              0              0              0
Averages over the last 501 of 1001 rows, steps 2305000 to 2405000:
Temp Press PotEng Density KinEng TotEng Lx Ly Lz Xlo Xhi Ylo Yhi Zlo Zhi Volume Dt
370052 16.5427 -1.59791e+06 0.158713 1.10195e+06 -495955 1399.33 1399.33 1399.33 1800.34 3199.66 1800.34 3199.66 1800.34 3199.66 2.74004e+09 0.5
Loop time of 12.4062 on 4 procs for 200000 steps with 1000 atoms

unfix 3

fix 4 all nvt temp 370000 300 100.0

run 100000
Generated 0 of 1 mixed pair_coeff terms from geometric mixing rule
Step          Temp          Press          PotEng        Density         KinEng         TotEng           Lx             Ly             Lz            Xlo            Xhi            Ylo            Yhi            Zlo            Zhi           Volume           Dt            Time           CPU           T/CPU          S/CPU         CPULeft
2405000   359868.72      16.68119      -1604648.1      0.15871289     1071627.6     -533020.48      1399.3268      1399.3268      1399.3268      1800.3366      3199.6634      1800.3366      3199.6634      1800.3366      3199.6634      2.7400434e+09  0.5            1205000        0              0              0              0
Averages over the last 251 of 501 rows, steps 2455000 to 2505000:
Temp Press PotEng Density KinEng TotEng Lx Ly Lz Xlo Xhi Ylo Yhi Zlo Zhi Volume Dt
93013.1 -0.704914 -1.82617e+06 0.158713 276977 -1.54919e+06 1399.33 1399.33 1399.33 1800.34 3199.66 1800.34 3199.66 1800.34 3199.66 2.74004e+09 0.5
Loop time of 6.46492 on 4 procs for 100000 steps with 1000 atoms

unfix 4

fix 5 all npt temp 300 300 $(100.0*dt) iso 1.0 1.0 $(1000.0*dt)
fix 5 all npt temp 300 300 50 iso 1.0 1.0 $(1000.0*dt)
fix 5 all npt temp 300 300 50 iso 1.0 1.0 500

run 300000
Generated 0 of 1 mixed pair_coeff terms from geometric mixing rule
Step          Temp          Press          PotEng        Density         KinEng         TotEng           Lx             Ly             Lz            Xlo            Xhi            Ylo            Yhi            Zlo            Zhi           Volume           Dt            Time           CPU           T/CPU          S/CPU         CPULeft
2505000   1279.2983     -11.254582     -1954263.7      0.15871289     3809.532      -1950454.2      1399.3268      1399.3268      1399.3268      1800.3366      3199.6634      1800.3366      3199.6634      1800.3366      3199.6634      2.7400434e+09  0.5            1255000        0              0              0              0
Averages over the last 751 of 1501 rows, steps 2655000 to 2805000:
Temp Press PotEng Density KinEng TotEng Lx Ly Lz Xlo Xhi Ylo Yhi Zlo Zhi Volume Dt
310.99 1.00604 -2.40311e+06 0.213159 926.077 -2.40218e+06 1268.8 1268.8 1268.8 1865.6 3134.4 1865.6 3134.4 1865.6 3134.4 2.04381e+09 0.5
Loop time of 29.7328 on 4 procs for 300000 steps with 1000 atoms

# run_style
run_style verlet

# write restart
write_restart ./pgnpmf/800200/equpmf4.res
System init for write_restart ...
Generated 0 of 1 mixed pair_coeff terms from geometric mixing rule
