LAMMPS (23 Jun 2022 - Update 1)
# Read restart
read_restart ./pgnpmf/800200/equpmf9.res
Reading restart file ...
  restart file = 23 Jun 2022, LAMMPS = 23 Jun 2022
  restoring atom style atomic from restart
  orthogonal box = (2071.1985 2071.1985 2071.1985) to (2928.8015 2928.8015 2928.8015)
  restoring pair style table from restart
  1000 atoms
  read_restart CPU = 0.017 seconds

# Settings

pair_style table spline 9941

pair_coeff 1 1 ./pgnpmf/N20.txt DE_GNP 75.6
pair_coeff 2 2 ./pgnpmf/N100.txt DE_GNP 115.92
pair_coeff 1 2 ./pgnpmf/mixed_potential.txt DE_GNP 95.66

#Neigh_list Calc Frequency

neigh_modify delay 0 every 1 check yes

# Saving Frequency (50 frames)

variable ts_save equal 5000

# Dump
#dump_modify 1 first no sort id
#dump 2 all cfg 50000 ./equilibration/trajectory/ovito/dumpgen.tens_*.cfg mass type xs ys zs fx fy fz

# thermo_style
thermo_style custom step temp press pe density ke etotal lx ly lz xlo xhi ylo yhi zlo zhi vol dt time cpu tpcpu spcpu cpuremain

# run info
timestep 0.5
thermo 200

# fix

fix 1 all momentum 1000 linear 1 1 1 angular
variable T equal 300
fix 2 all nvt temp 300 370000 100.0

run 100000
Generated 0 of 1 mixed pair_coeff terms from geometric mixing rule
Unused restart file global fix info:
  fix style: npt, fix ID: 5
  update every 1 steps, delay 0 steps, check yes
Step          Temp          Press          PotEng        Density         KinEng         TotEng           Lx             Ly             Lz            Xlo            Xhi            Ylo            Yhi            Zlo            Zhi           Volume           Dt            Time           CPU           T/CPU          S/CPU         CPULeft
6305000   312.73284      2.4572528     -8026355.9      0.68946258     931.26501     -8025424.6      857.60304      857.60304      857.60304      2071.1985      2928.8015      2071.1985      2928.8015      2071.1985      2928.8015      6.3075244e+08  0.5            3155000        0              0              0              0
Averages over the last 251 of 501 rows, steps 6355000 to 6405000:
Temp Press PotEng Density KinEng TotEng Lx Ly Lz Xlo Xhi Ylo Yhi Zlo Zhi Volume Dt
277467 44.1242 -8.20974e+06 0.689463 826248 -7.38349e+06 857.603 857.603 857.603 2071.2 2928.8 2071.2 2928.8 2071.2 2928.8 6.30752e+08 0.5
Loop time of 9.93175 on 4 procs for 100000 steps with 1000 atoms

unfix 2

fix 3 all nvt temp 370000 370000 $(100.0*dt) #iso 1.0 1.0 $(1000.0*dt)
fix 3 all nvt temp 370000 370000 50

run 200000
Generated 0 of 1 mixed pair_coeff terms from geometric mixing rule
Step          Temp          Press          PotEng        Density         KinEng         TotEng           Lx             Ly             Lz            Xlo            Xhi            Ylo            Yhi            Zlo            Zhi           Volume           Dt            Time           CPU           T/CPU          S/CPU         CPULeft
6405000   375302.36      80.561604     -7932621.4      0.68946258     1117586.4     -6815035        857.60304      857.60304      857.60304      2071.1985      2928.8015      2071.1985      2928.8015      2071.1985      2928.8015      6.3075244e+08  0.5            3205000        0              0              0              0
Averages over the last 501 of 1001 rows, steps 6505000 to 6605000:
Temp Press PotEng Density KinEng TotEng Lx Ly Lz Xlo Xhi Ylo Yhi Zlo Zhi Volume Dt
370001 48.0526 -7.4356e+06 0.689463 1.1018e+06 -6.3338e+06 857.603 857.603 857.603 2071.2 2928.8 2071.2 2928.8 2071.2 2928.8 6.30752e+08 0.5
Loop time of 20.1548 on 4 procs for 200000 steps with 1000 atoms

unfix 3

fix 4 all nvt temp 370000 300 100.0

run 100000
Generated 0 of 1 mixed pair_coeff terms from geometric mixing rule
Step          Temp          Press          PotEng        Density         KinEng         TotEng           Lx             Ly             Lz            Xlo            Xhi            Ylo            Yhi            Zlo            Zhi           Volume           Dt            Time           CPU           T/CPU          S/CPU         CPULeft
6605000   375108.26      38.199693     -7446297        0.68946258     1117008.3     -6329288.6      857.60304      857.60304      857.60304      2071.1985      2928.8015      2071.1985      2928.8015      2071.1985      2928.8015      6.3075244e+08  0.5            3305000        0              0              0              0
Averages over the last 251 of 501 rows, steps 6655000 to 6705000:
Temp Press PotEng Density KinEng TotEng Lx Ly Lz Xlo Xhi Ylo Yhi Zlo Zhi Volume Dt
92944.5 -91.8486 -8.0068e+06 0.689463 276773 -7.73002e+06 857.603 857.603 857.603 2071.2 2928.8 2071.2 2928.8 2071.2 2928.8 6.30752e+08 0.5
Loop time of 10.2749 on 4 procs for 100000 steps with 1000 atoms

unfix 4

fix 5 all npt temp 300 300 $(100.0*dt) iso 1.0 1.0 $(1000.0*dt)
fix 5 all npt temp 300 300 50 iso 1.0 1.0 $(1000.0*dt)
fix 5 all npt temp 300 300 50 iso 1.0 1.0 500

run 300000
Generated 0 of 1 mixed pair_coeff terms from geometric mixing rule
Step          Temp          Press          PotEng        Density         KinEng         TotEng           Lx             Ly             Lz            Xlo            Xhi            Ylo            Yhi            Zlo            Zhi           Volume           Dt            Time           CPU           T/CPU          S/CPU         CPULeft
6705000   1387.7352     -166.25769     -8378412.9      0.68946258     4132.4385     -8374280.5      857.60304      857.60304      857.60304      2071.1985      2928.8015      2071.1985      2928.8015      2071.1985      2928.8015      6.3075244e+08  0.5            3355000        0              0              0              0
Averages over the last 751 of 1501 rows, steps 6855000 to 7005000:
Temp Press PotEng Density KinEng TotEng Lx Ly Lz Xlo Xhi Ylo Yhi Zlo Zhi Volume Dt
315.802 1.08353 -9.02764e+06 0.788471 940.404 -9.0267e+06 820.137 820.137 820.137 2089.93 2910.07 2089.93 2910.07 2089.93 2910.07 5.51693e+08 0.5
Loop time of 42.3743 on 4 procs for 300000 steps with 1000 atoms

# run_style
run_style verlet

# write restart
write_restart ./pgnpmf/800200/equpmf10.res
System init for write_restart ...
Generated 0 of 1 mixed pair_coeff terms from geometric mixing rule
