LAMMPS (23 Jun 2022 - Update 1)
# Read restart
read_restart ./pgnpmf/7030/genpmf.res
Reading restart file ...
  restart file = 23 Jun 2022, LAMMPS = 23 Jun 2022
  restoring atom style atomic from restart
  orthogonal box = (-100 -100 -100) to (4100 4100 4100)
  restoring pair style table from restart
  1000 atoms
  read_restart CPU = 0.006 seconds

# Settings

pair_style table spline 9941

pair_coeff 1 1 ./pgnpmf/N20.txt DE_GNP 75.6
pair_coeff 2 2 ./pgnpmf/N100.txt DE_GNP 115.92
pair_coeff 1 2 ./pgnpmf/mixed_potential.txt DE_GNP 95.66

#Neigh_list Calc Frequency

neigh_modify delay 0 every 1 check yes

# Saving Frequency (50 frames)

variable ts_save equal 5000

# Dump
#dump_modify 1 first no sort id
dump 2 all cfg 50000 ./pgnpmf/7030/equilibration/trajectory/dumpgen.tens_*.cfg mass type xs ys zs fx fy fz
dump_modify 2 element N20 N100

# thermo_style
thermo_style custom step temp press pe density ke etotal lx ly lz xlo xhi ylo yhi zlo zhi vol dt time cpu tpcpu spcpu cpuremain

# run info
timestep 0.1
thermo 10000

# fix

fix 1 all momentum 1000 linear 1 1 1 angular
variable T equal 300
fix 2 all nvt temp 300 370000 100.0

run 200000
Generated 0 of 1 mixed pair_coeff terms from geometric mixing rule
Unused restart file global fix info:
  fix style: nvt, fix ID: 5
  update every 1 steps, delay 0 steps, check yes
Step          Temp          Press          PotEng        Density         KinEng         TotEng           Lx             Ly             Lz            Xlo            Xhi            Ylo            Yhi            Zlo            Zhi           Volume           Dt            Time           CPU           T/CPU          S/CPU         CPULeft
2400000   2272.3197     -0.016172801   -72009.233      0.0063184887   6766.58       -65242.653      4200           4200           4200          -100            4100          -100            4100          -100            4100           7.4088e+10     0.1            2400000        0              0              0              0
Averages over the last 11 of 21 rows, steps 2500000 to 2600000:
Temp Press PotEng Density KinEng TotEng Lx Ly Lz Xlo Xhi Ylo Yhi Zlo Zhi Volume Dt
279438 0.525368 -83558.2 0.00631849 832118 748560 4200 4200 4200 -100 4100 -100 4100 -100 4100 7.4088e+10 0.1
Loop time of 4.25548 on 4 procs for 200000 steps with 1000 atoms

unfix 2

fix 3 all nvt temp 370000 370000 $(100.0*dt) #iso 1.0 1.0 $(1000.0*dt)
fix 3 all nvt temp 370000 370000 10

run 500000
Generated 0 of 1 mixed pair_coeff terms from geometric mixing rule
Step          Temp          Press          PotEng        Density         KinEng         TotEng           Lx             Ly             Lz            Xlo            Xhi            Ylo            Yhi            Zlo            Zhi           Volume           Dt            Time           CPU           T/CPU          S/CPU         CPULeft
2600000   355471.43      0.63780566    -90423.713      0.0063184887   1058533.2      968109.49      4200           4200           4200          -100            4100          -100            4100          -100            4100           7.4088e+10     0.1            2420000        0              0              0              0
Averages over the last 26 of 51 rows, steps 2850000 to 3100000:
Temp Press PotEng Density KinEng TotEng Lx Ly Lz Xlo Xhi Ylo Yhi Zlo Zhi Volume Dt
370183 0.677698 -72554.1 0.00631849 1.10234e+06 1.02979e+06 4200 4200 4200 -100 4100 -100 4100 -100 4100 7.4088e+10 0.1
Loop time of 10.6494 on 4 procs for 500000 steps with 1000 atoms

unfix 3

fix 4 all nvt temp 370000 300 $(100.0*dt)
fix 4 all nvt temp 370000 300 10

run 200000
Generated 0 of 1 mixed pair_coeff terms from geometric mixing rule
Step          Temp          Press          PotEng        Density         KinEng         TotEng           Lx             Ly             Lz            Xlo            Xhi            Ylo            Yhi            Zlo            Zhi           Volume           Dt            Time           CPU           T/CPU          S/CPU         CPULeft
3100000   383481.9       0.71783092    -74236.934      0.0063184887   1141943.6      1067706.7      4200           4200           4200          -100            4100          -100            4100          -100            4100           7.4088e+10     0.1            2470000        0              0              0              0
Averages over the last 11 of 21 rows, steps 3200000 to 3300000:
Temp Press PotEng Density KinEng TotEng Lx Ly Lz Xlo Xhi Ylo Yhi Zlo Zhi Volume Dt
92420.6 0.167692 -68737.6 0.00631849 275213 206475 4200 4200 4200 -100 4100 -100 4100 -100 4100 7.4088e+10 0.1
Loop time of 4.22151 on 4 procs for 200000 steps with 1000 atoms

unfix 4

fix 5 all npt temp 300 300 $(100.0*dt) iso 1.0 1.0 $(1000.0*dt)
fix 5 all npt temp 300 300 10 iso 1.0 1.0 $(1000.0*dt)
fix 5 all npt temp 300 300 10 iso 1.0 1.0 100

run 300000
Generated 0 of 1 mixed pair_coeff terms from geometric mixing rule
Step          Temp          Press          PotEng        Density         KinEng         TotEng           Lx             Ly             Lz            Xlo            Xhi            Ylo            Yhi            Zlo            Zhi           Volume           Dt            Time           CPU           T/CPU          S/CPU         CPULeft
3300000   490.29788     -0.0057872694  -67543.84       0.0063184887   1460.0234     -66083.817      4200           4200           4200          -100            4100          -100            4100          -100            4100           7.4088e+10     0.1            2490000        0              0              0              0
Averages over the last 16 of 31 rows, steps 3450000 to 3600000:
Temp Press PotEng Density KinEng TotEng Lx Ly Lz Xlo Xhi Ylo Yhi Zlo Zhi Volume Dt
317.351 0.998683 -123930 0.0171567 945.018 -122985 3016.48 3016.48 3016.48 491.762 3508.24 491.762 3508.24 491.762 3508.24 2.75289e+10 0.1
Loop time of 10.7345 on 4 procs for 300000 steps with 1000 atoms

# run_style
run_style verlet

# write restart
write_restart ./pgnpmf/7030/equpmf1.res
System init for write_restart ...
Generated 0 of 1 mixed pair_coeff terms from geometric mixing rule
