LAMMPS (23 Jun 2022 - Update 1)
# Read restart
read_restart ./pgnpmf/7030/equpmf45.res
Reading restart file ...
  restart file = 23 Jun 2022, LAMMPS = 23 Jun 2022
  restoring atom style atomic from restart
  orthogonal box = (1700.2137 1700.2137 1700.2137) to (2299.7863 2299.7863 2299.7863)
  restoring pair style table from restart
  1000 atoms
  read_restart CPU = 0.007 seconds

# Settings

pair_style table spline 9941

pair_coeff 1 1 ./pgnpmf/N20.txt DE_GNP 75.6
pair_coeff 2 2 ./pgnpmf/N100.txt DE_GNP 115.92
pair_coeff 1 2 ./pgnpmf/mixed_potential.txt DE_GNP 95.66

#Neigh_list Calc Frequency

neigh_modify delay 0 every 1 check yes

# Saving Frequency (50 frames)

variable ts_save equal 5000

# Dump
#dump_modify 1 first no sort id
dump 2 all cfg 50000 ./pgnpmf/7030/equilibration/trajectory/dumpgen.tens_*.cfg mass type xs ys zs fx fy fz
dump_modify 2 element N20 N100

# thermo_style
thermo_style custom step temp press pe density ke etotal lx ly lz xlo xhi ylo yhi zlo zhi vol dt time cpu tpcpu spcpu cpuremain

# run info
timestep 0.1
thermo 10000

# fix

fix 1 all momentum 1000 linear 1 1 1 angular
variable T equal 300
fix 2 all nvt temp 300 370000 100.0

run 200000
Generated 0 of 1 mixed pair_coeff terms from geometric mixing rule
Unused restart file global fix info:
  fix style: npt, fix ID: 5
  update every 1 steps, delay 0 steps, check yes
Step          Temp          Press          PotEng        Density         KinEng         TotEng           Lx             Ly             Lz            Xlo            Xhi            Ylo            Yhi            Zlo            Zhi           Volume           Dt            Time           CPU           T/CPU          S/CPU         CPULeft
56400000   310.11838      4.3740471     -21562384       2.1718798      923.47958     -21561461       599.57259      599.57259      599.57259      1700.2137      2299.7863      1700.2137      2299.7863      1700.2137      2299.7863      2.1553872e+08  0.1            7800000        0              0              0              0
Averages over the last 11 of 21 rows, steps 56500000 to 56600000:
Temp Press PotEng Density KinEng TotEng Lx Ly Lz Xlo Xhi Ylo Yhi Zlo Zhi Volume Dt
277921 2464.77 -2.09911e+07 2.17188 827602 -2.01635e+07 599.573 599.573 599.573 1700.21 2299.79 1700.21 2299.79 1700.21 2299.79 2.15539e+08 0.1
Loop time of 15.628 on 4 procs for 200000 steps with 1000 atoms

unfix 2

fix 3 all nvt temp 370000 370000 $(100.0*dt) #iso 1.0 1.0 $(1000.0*dt)
fix 3 all nvt temp 370000 370000 10

run 500000
Generated 0 of 1 mixed pair_coeff terms from geometric mixing rule
Step          Temp          Press          PotEng        Density         KinEng         TotEng           Lx             Ly             Lz            Xlo            Xhi            Ylo            Yhi            Zlo            Zhi           Volume           Dt            Time           CPU           T/CPU          S/CPU         CPULeft
56600000   370015.27      3668.6893     -20666805       2.1718798      1101842.3     -19564962       599.57259      599.57259      599.57259      1700.2137      2299.7863      1700.2137      2299.7863      1700.2137      2299.7863      2.1553872e+08  0.1            7820000        0              0              0              0
Averages over the last 26 of 51 rows, steps 56850000 to 57100000:
Temp Press PotEng Density KinEng TotEng Lx Ly Lz Xlo Xhi Ylo Yhi Zlo Zhi Volume Dt
366055 3345.32 -2.05513e+07 2.17188 1.09005e+06 -1.94612e+07 599.573 599.573 599.573 1700.21 2299.79 1700.21 2299.79 1700.21 2299.79 2.15539e+08 0.1
Loop time of 40.1355 on 4 procs for 500000 steps with 1000 atoms

unfix 3

fix 4 all nvt temp 370000 300 $(100.0*dt)
fix 4 all nvt temp 370000 300 10

run 200000
Generated 0 of 1 mixed pair_coeff terms from geometric mixing rule
Step          Temp          Press          PotEng        Density         KinEng         TotEng           Lx             Ly             Lz            Xlo            Xhi            Ylo            Yhi            Zlo            Zhi           Volume           Dt            Time           CPU           T/CPU          S/CPU         CPULeft
57100000   369518.02      3323.5182     -20453088       2.1718798      1100361.6     -19352727       599.57259      599.57259      599.57259      1700.2137      2299.7863      1700.2137      2299.7863      1700.2137      2299.7863      2.1553872e+08  0.1            7870000        0              0              0              0
Averages over the last 11 of 21 rows, steps 57200000 to 57300000:
Temp Press PotEng Density KinEng TotEng Lx Ly Lz Xlo Xhi Ylo Yhi Zlo Zhi Volume Dt
93420.7 1128.74 -2.12187e+07 2.17188 278191 -2.09405e+07 599.573 599.573 599.573 1700.21 2299.79 1700.21 2299.79 1700.21 2299.79 2.15539e+08 0.1
Loop time of 15.8714 on 4 procs for 200000 steps with 1000 atoms

unfix 4

fix 5 all npt temp 300 300 $(100.0*dt) iso 1.0 1.0 $(1000.0*dt)
fix 5 all npt temp 300 300 10 iso 1.0 1.0 $(1000.0*dt)
fix 5 all npt temp 300 300 10 iso 1.0 1.0 100

run 300000
Generated 0 of 1 mixed pair_coeff terms from geometric mixing rule
Step          Temp          Press          PotEng        Density         KinEng         TotEng           Lx             Ly             Lz            Xlo            Xhi            Ylo            Yhi            Zlo            Zhi           Volume           Dt            Time           CPU           T/CPU          S/CPU         CPULeft
57300000   524.21897      311.02814     -21447764       2.1718798      1561.0346     -21446203       599.57259      599.57259      599.57259      1700.2137      2299.7863      1700.2137      2299.7863      1700.2137      2299.7863      2.1553872e+08  0.1            7890000        0              0              0              0
Averages over the last 16 of 31 rows, steps 57450000 to 57600000:
Temp Press PotEng Density KinEng TotEng Lx Ly Lz Xlo Xhi Ylo Yhi Zlo Zhi Volume Dt
302.138 1.49254 -2.14981e+07 2.16998 899.716 -2.14972e+07 599.747 599.747 599.747 1700.13 2299.87 1700.13 2299.87 1700.13 2299.87 2.15727e+08 0.1
Loop time of 27.5496 on 4 procs for 300000 steps with 1000 atoms

# run_style
run_style verlet

# write restart
write_restart ./pgnpmf/7030/equpmf46.res
System init for write_restart ...
Generated 0 of 1 mixed pair_coeff terms from geometric mixing rule
