LAMMPS (23 Jun 2022 - Update 1)
# Read restart
read_restart ./pgnpmf/7030/equpmf59.res
Reading restart file ...
  restart file = 23 Jun 2022, LAMMPS = 23 Jun 2022
  restoring atom style atomic from restart
  orthogonal box = (1700.5177 1700.5177 1700.5177) to (2299.4823 2299.4823 2299.4823)
  restoring pair style table from restart
  1000 atoms
  read_restart CPU = 0.008 seconds

# Settings

pair_style table spline 9941

pair_coeff 1 1 ./pgnpmf/N20.txt DE_GNP 75.6
pair_coeff 2 2 ./pgnpmf/N100.txt DE_GNP 115.92
pair_coeff 1 2 ./pgnpmf/mixed_potential.txt DE_GNP 95.66

#Neigh_list Calc Frequency

neigh_modify delay 0 every 1 check yes

# Saving Frequency (50 frames)

variable ts_save equal 5000

# Dump
#dump_modify 1 first no sort id
dump 2 all cfg 50000 ./pgnpmf/7030/equilibration/trajectory/dumpgen.tens_*.cfg mass type xs ys zs fx fy fz
dump_modify 2 element N20 N100

# thermo_style
thermo_style custom step temp press pe density ke etotal lx ly lz xlo xhi ylo yhi zlo zhi vol dt time cpu tpcpu spcpu cpuremain

# run info
timestep 0.1
thermo 10000

# fix

fix 1 all momentum 1000 linear 1 1 1 angular
variable T equal 300
fix 2 all nvt temp 300 370000 100.0

run 200000
Generated 0 of 1 mixed pair_coeff terms from geometric mixing rule
Unused restart file global fix info:
  fix style: npt, fix ID: 5
  update every 1 steps, delay 0 steps, check yes
Step          Temp          Press          PotEng        Density         KinEng         TotEng           Lx             Ly             Lz            Xlo            Xhi            Ylo            Yhi            Zlo            Zhi           Volume           Dt            Time           CPU           T/CPU          S/CPU         CPULeft
73200000   318.04634      4.689703      -21458333       2.1784998      947.0877      -21457386       598.96464      598.96464      598.96464      1700.5177      2299.4823      1700.5177      2299.4823      1700.5177      2299.4823      2.1488374e+08  0.1            9480000        0              0              0              0
Averages over the last 11 of 21 rows, steps 73300000 to 73400000:
Temp Press PotEng Density KinEng TotEng Lx Ly Lz Xlo Xhi Ylo Yhi Zlo Zhi Volume Dt
278103 2364.27 -2.09096e+07 2.1785 828144 -2.00814e+07 598.965 598.965 598.965 1700.52 2299.48 1700.52 2299.48 1700.52 2299.48 2.14884e+08 0.1
Loop time of 14.821 on 4 procs for 200000 steps with 1000 atoms

unfix 2

fix 3 all nvt temp 370000 370000 $(100.0*dt) #iso 1.0 1.0 $(1000.0*dt)
fix 3 all nvt temp 370000 370000 10

run 500000
Generated 0 of 1 mixed pair_coeff terms from geometric mixing rule
Step          Temp          Press          PotEng        Density         KinEng         TotEng           Lx             Ly             Lz            Xlo            Xhi            Ylo            Yhi            Zlo            Zhi           Volume           Dt            Time           CPU           T/CPU          S/CPU         CPULeft
73400000   378177.01      3481.0129     -20608172       2.1784998      1126146.6     -19482025       598.96464      598.96464      598.96464      1700.5177      2299.4823      1700.5177      2299.4823      1700.5177      2299.4823      2.1488374e+08  0.1            9500000        0              0              0              0
Averages over the last 26 of 51 rows, steps 73650000 to 73900000:
Temp Press PotEng Density KinEng TotEng Lx Ly Lz Xlo Xhi Ylo Yhi Zlo Zhi Volume Dt
373063 3409.71 -2.0589e+07 2.1785 1.11092e+06 -1.94781e+07 598.965 598.965 598.965 1700.52 2299.48 1700.52 2299.48 1700.52 2299.48 2.14884e+08 0.1
Loop time of 38.1371 on 4 procs for 500000 steps with 1000 atoms

unfix 3

fix 4 all nvt temp 370000 300 $(100.0*dt)
fix 4 all nvt temp 370000 300 10

run 200000
Generated 0 of 1 mixed pair_coeff terms from geometric mixing rule
Step          Temp          Press          PotEng        Density         KinEng         TotEng           Lx             Ly             Lz            Xlo            Xhi            Ylo            Yhi            Zlo            Zhi           Volume           Dt            Time           CPU           T/CPU          S/CPU         CPULeft
73900000   369494.41      3306.5508     -20674921       2.1784998      1100291.3     -19574630       598.96464      598.96464      598.96464      1700.5177      2299.4823      1700.5177      2299.4823      1700.5177      2299.4823      2.1488374e+08  0.1            9550000        0              0              0              0
Averages over the last 11 of 21 rows, steps 74000000 to 74100000:
Temp Press PotEng Density KinEng TotEng Lx Ly Lz Xlo Xhi Ylo Yhi Zlo Zhi Volume Dt
93019.8 993.159 -2.12328e+07 2.1785 276997 -2.09558e+07 598.965 598.965 598.965 1700.52 2299.48 1700.52 2299.48 1700.52 2299.48 2.14884e+08 0.1
Loop time of 15.1043 on 4 procs for 200000 steps with 1000 atoms

unfix 4

fix 5 all npt temp 300 300 $(100.0*dt) iso 1.0 1.0 $(1000.0*dt)
fix 5 all npt temp 300 300 10 iso 1.0 1.0 $(1000.0*dt)
fix 5 all npt temp 300 300 10 iso 1.0 1.0 100

run 300000
Generated 0 of 1 mixed pair_coeff terms from geometric mixing rule
Step          Temp          Press          PotEng        Density         KinEng         TotEng           Lx             Ly             Lz            Xlo            Xhi            Ylo            Yhi            Zlo            Zhi           Volume           Dt            Time           CPU           T/CPU          S/CPU         CPULeft
74100000   523.69855      152.18928     -21497417       2.1784998      1559.4848     -21495858       598.96464      598.96464      598.96464      1700.5177      2299.4823      1700.5177      2299.4823      1700.5177      2299.4823      2.1488374e+08  0.1            9570000        0              0              0              0
Averages over the last 16 of 31 rows, steps 74250000 to 74400000:
Temp Press PotEng Density KinEng TotEng Lx Ly Lz Xlo Xhi Ylo Yhi Zlo Zhi Volume Dt
301.149 0.187512 -2.15628e+07 2.18227 896.772 -2.15619e+07 598.619 598.619 598.619 1700.69 2299.31 1700.69 2299.31 1700.69 2299.31 2.14512e+08 0.1
Loop time of 26.1064 on 4 procs for 300000 steps with 1000 atoms

# run_style
run_style verlet

# write restart
write_restart ./pgnpmf/7030/equpmf60.res
System init for write_restart ...
Generated 0 of 1 mixed pair_coeff terms from geometric mixing rule
