LAMMPS (23 Jun 2022 - Update 1)
# Read restart
read_restart ./pgnpmf/7030/equpmf41.res
Reading restart file ...
  restart file = 23 Jun 2022, LAMMPS = 23 Jun 2022
  restoring atom style atomic from restart
  orthogonal box = (1700.3129 1700.3129 1700.3129) to (2299.6871 2299.6871 2299.6871)
  restoring pair style table from restart
  1000 atoms
  read_restart CPU = 0.008 seconds

# Settings

pair_style table spline 9941

pair_coeff 1 1 ./pgnpmf/N20.txt DE_GNP 75.6
pair_coeff 2 2 ./pgnpmf/N100.txt DE_GNP 115.92
pair_coeff 1 2 ./pgnpmf/mixed_potential.txt DE_GNP 95.66

#Neigh_list Calc Frequency

neigh_modify delay 0 every 1 check yes

# Saving Frequency (50 frames)

variable ts_save equal 5000

# Dump
#dump_modify 1 first no sort id
dump 2 all cfg 50000 ./pgnpmf/7030/equilibration/trajectory/dumpgen.tens_*.cfg mass type xs ys zs fx fy fz
dump_modify 2 element N20 N100

# thermo_style
thermo_style custom step temp press pe density ke etotal lx ly lz xlo xhi ylo yhi zlo zhi vol dt time cpu tpcpu spcpu cpuremain

# run info
timestep 0.1
thermo 10000

# fix

fix 1 all momentum 1000 linear 1 1 1 angular
variable T equal 300
fix 2 all nvt temp 300 370000 100.0

run 200000
Generated 0 of 1 mixed pair_coeff terms from geometric mixing rule
Unused restart file global fix info:
  fix style: npt, fix ID: 5
  update every 1 steps, delay 0 steps, check yes
Step          Temp          Press          PotEng        Density         KinEng         TotEng           Lx             Ly             Lz            Xlo            Xhi            Ylo            Yhi            Zlo            Zhi           Volume           Dt            Time           CPU           T/CPU          S/CPU         CPULeft
51600000   292.78228     -0.00075906797 -21451802       2.1740367      871.85563     -21450930       599.37424      599.37424      599.37424      1700.3129      2299.6871      1700.3129      2299.6871      1700.3129      2299.6871      2.1532488e+08  0.1            7320000        0              0              0              0
Averages over the last 11 of 21 rows, steps 51700000 to 51800000:
Temp Press PotEng Density KinEng TotEng Lx Ly Lz Xlo Xhi Ylo Yhi Zlo Zhi Volume Dt
275874 2645.6 -2.09603e+07 2.17404 821505 -2.01388e+07 599.374 599.374 599.374 1700.31 2299.69 1700.31 2299.69 1700.31 2299.69 2.15325e+08 0.1
Loop time of 15.3242 on 4 procs for 200000 steps with 1000 atoms

unfix 2

fix 3 all nvt temp 370000 370000 $(100.0*dt) #iso 1.0 1.0 $(1000.0*dt)
fix 3 all nvt temp 370000 370000 10

run 500000
Generated 0 of 1 mixed pair_coeff terms from geometric mixing rule
Step          Temp          Press          PotEng        Density         KinEng         TotEng           Lx             Ly             Lz            Xlo            Xhi            Ylo            Yhi            Zlo            Zhi           Volume           Dt            Time           CPU           T/CPU          S/CPU         CPULeft
51800000   368624.88      3623.6903     -20748927       2.1740367      1097701.9     -19651225       599.37424      599.37424      599.37424      1700.3129      2299.6871      1700.3129      2299.6871      1700.3129      2299.6871      2.1532488e+08  0.1            7340000        0              0              0              0
Averages over the last 26 of 51 rows, steps 52050000 to 52300000:
Temp Press PotEng Density KinEng TotEng Lx Ly Lz Xlo Xhi Ylo Yhi Zlo Zhi Volume Dt
366529 3510.61 -2.05171e+07 2.17404 1.09146e+06 -1.94257e+07 599.374 599.374 599.374 1700.31 2299.69 1700.31 2299.69 1700.31 2299.69 2.15325e+08 0.1
Loop time of 38.8515 on 4 procs for 500000 steps with 1000 atoms

unfix 3

fix 4 all nvt temp 370000 300 $(100.0*dt)
fix 4 all nvt temp 370000 300 10

run 200000
Generated 0 of 1 mixed pair_coeff terms from geometric mixing rule
Step          Temp          Press          PotEng        Density         KinEng         TotEng           Lx             Ly             Lz            Xlo            Xhi            Ylo            Yhi            Zlo            Zhi           Volume           Dt            Time           CPU           T/CPU          S/CPU         CPULeft
52300000   358637.91      3476.986      -20525046       2.1740367      1067962.5     -19457083       599.37424      599.37424      599.37424      1700.3129      2299.6871      1700.3129      2299.6871      1700.3129      2299.6871      2.1532488e+08  0.1            7390000        0              0              0              0
Averages over the last 11 of 21 rows, steps 52400000 to 52500000:
Temp Press PotEng Density KinEng TotEng Lx Ly Lz Xlo Xhi Ylo Yhi Zlo Zhi Volume Dt
91880.6 1233.83 -2.11597e+07 2.17404 273605 -2.08861e+07 599.374 599.374 599.374 1700.31 2299.69 1700.31 2299.69 1700.31 2299.69 2.15325e+08 0.1
Loop time of 15.4245 on 4 procs for 200000 steps with 1000 atoms

unfix 4

fix 5 all npt temp 300 300 $(100.0*dt) iso 1.0 1.0 $(1000.0*dt)
fix 5 all npt temp 300 300 10 iso 1.0 1.0 $(1000.0*dt)
fix 5 all npt temp 300 300 10 iso 1.0 1.0 100

run 300000
Generated 0 of 1 mixed pair_coeff terms from geometric mixing rule
Step          Temp          Press          PotEng        Density         KinEng         TotEng           Lx             Ly             Lz            Xlo            Xhi            Ylo            Yhi            Zlo            Zhi           Volume           Dt            Time           CPU           T/CPU          S/CPU         CPULeft
52500000   524.82436      433.39461     -21368280       2.1740367      1562.8373     -21366717       599.37424      599.37424      599.37424      1700.3129      2299.6871      1700.3129      2299.6871      1700.3129      2299.6871      2.1532488e+08  0.1            7410000        0              0              0              0
Averages over the last 16 of 31 rows, steps 52650000 to 52800000:
Temp Press PotEng Density KinEng TotEng Lx Ly Lz Xlo Xhi Ylo Yhi Zlo Zhi Volume Dt
302.643 1.28712 -2.14214e+07 2.16749 901.22 -2.14205e+07 599.977 599.977 599.977 1700.01 2299.99 1700.01 2299.99 1700.01 2299.99 2.15975e+08 0.1
Loop time of 26.5805 on 4 procs for 300000 steps with 1000 atoms

# run_style
run_style verlet

# write restart
write_restart ./pgnpmf/7030/equpmf42.res
System init for write_restart ...
Generated 0 of 1 mixed pair_coeff terms from geometric mixing rule
