LAMMPS (23 Jun 2022 - Update 1)
# Read restart
read_restart ./pgnpmf/7030/equpmf29.res
Reading restart file ...
  restart file = 23 Jun 2022, LAMMPS = 23 Jun 2022
  restoring atom style atomic from restart
  orthogonal box = (1698.3102 1698.3102 1698.3102) to (2301.6898 2301.6898 2301.6898)
  restoring pair style table from restart
  1000 atoms
  read_restart CPU = 0.005 seconds

# Settings

pair_style table spline 9941

pair_coeff 1 1 ./pgnpmf/N20.txt DE_GNP 75.6
pair_coeff 2 2 ./pgnpmf/N100.txt DE_GNP 115.92
pair_coeff 1 2 ./pgnpmf/mixed_potential.txt DE_GNP 95.66

#Neigh_list Calc Frequency

neigh_modify delay 0 every 1 check yes

# Saving Frequency (50 frames)

variable ts_save equal 5000

# Dump
#dump_modify 1 first no sort id
dump 2 all cfg 50000 ./pgnpmf/7030/equilibration/trajectory/dumpgen.tens_*.cfg mass type xs ys zs fx fy fz
dump_modify 2 element N20 N100

# thermo_style
thermo_style custom step temp press pe density ke etotal lx ly lz xlo xhi ylo yhi zlo zhi vol dt time cpu tpcpu spcpu cpuremain

# run info
timestep 0.1
thermo 10000

# fix

fix 1 all momentum 1000 linear 1 1 1 angular
variable T equal 300
fix 2 all nvt temp 300 370000 100.0

run 200000
Generated 0 of 1 mixed pair_coeff terms from geometric mixing rule
Unused restart file global fix info:
  fix style: npt, fix ID: 5
  update every 1 steps, delay 0 steps, check yes
Step          Temp          Press          PotEng        Density         KinEng         TotEng           Lx             Ly             Lz            Xlo            Xhi            Ylo            Yhi            Zlo            Zhi           Volume           Dt            Time           CPU           T/CPU          S/CPU         CPULeft
37200000   303.49296      8.1763331     -21139183       2.131029       903.75022     -21138279       603.37953      603.37953      603.37953      1698.3102      2301.6898      1698.3102      2301.6898      1698.3102      2301.6898      2.1967049e+08  0.1            5880000        0              0              0              0
Averages over the last 11 of 21 rows, steps 37300000 to 37400000:
Temp Press PotEng Density KinEng TotEng Lx Ly Lz Xlo Xhi Ylo Yhi Zlo Zhi Volume Dt
277537 1942.87 -2.06847e+07 2.13103 826458 -1.98583e+07 603.38 603.38 603.38 1698.31 2301.69 1698.31 2301.69 1698.31 2301.69 2.1967e+08 0.1
Loop time of 15.4085 on 4 procs for 200000 steps with 1000 atoms

unfix 2

fix 3 all nvt temp 370000 370000 $(100.0*dt) #iso 1.0 1.0 $(1000.0*dt)
fix 3 all nvt temp 370000 370000 10

run 500000
Generated 0 of 1 mixed pair_coeff terms from geometric mixing rule
Step          Temp          Press          PotEng        Density         KinEng         TotEng           Lx             Ly             Lz            Xlo            Xhi            Ylo            Yhi            Zlo            Zhi           Volume           Dt            Time           CPU           T/CPU          S/CPU         CPULeft
37400000   373439.24      2987.5765     -20437232       2.131029       1112038.3     -19325194       603.37953      603.37953      603.37953      1698.3102      2301.6898      1698.3102      2301.6898      1698.3102      2301.6898      2.1967049e+08  0.1            5900000        0              0              0              0
Averages over the last 26 of 51 rows, steps 37650000 to 37900000:
Temp Press PotEng Density KinEng TotEng Lx Ly Lz Xlo Xhi Ylo Yhi Zlo Zhi Volume Dt
370629 2781.63 -2.03775e+07 2.13103 1.10367e+06 -1.92738e+07 603.38 603.38 603.38 1698.31 2301.69 1698.31 2301.69 1698.31 2301.69 2.1967e+08 0.1
Loop time of 39.285 on 4 procs for 500000 steps with 1000 atoms

unfix 3

fix 4 all nvt temp 370000 300 $(100.0*dt)
fix 4 all nvt temp 370000 300 10

run 200000
Generated 0 of 1 mixed pair_coeff terms from geometric mixing rule
Step          Temp          Press          PotEng        Density         KinEng         TotEng           Lx             Ly             Lz            Xlo            Xhi            Ylo            Yhi            Zlo            Zhi           Volume           Dt            Time           CPU           T/CPU          S/CPU         CPULeft
37900000   358430.53      2729.637      -20393475       2.131029       1067344.9     -19326130       603.37953      603.37953      603.37953      1698.3102      2301.6898      1698.3102      2301.6898      1698.3102      2301.6898      2.1967049e+08  0.1            5950000        0              0              0              0
Averages over the last 11 of 21 rows, steps 38000000 to 38100000:
Temp Press PotEng Density KinEng TotEng Lx Ly Lz Xlo Xhi Ylo Yhi Zlo Zhi Volume Dt
93214.2 558.884 -2.10021e+07 2.13103 277576 -2.07245e+07 603.38 603.38 603.38 1698.31 2301.69 1698.31 2301.69 1698.31 2301.69 2.1967e+08 0.1
Loop time of 15.4529 on 4 procs for 200000 steps with 1000 atoms

unfix 4

fix 5 all npt temp 300 300 $(100.0*dt) iso 1.0 1.0 $(1000.0*dt)
fix 5 all npt temp 300 300 10 iso 1.0 1.0 $(1000.0*dt)
fix 5 all npt temp 300 300 10 iso 1.0 1.0 100

run 300000
Generated 0 of 1 mixed pair_coeff terms from geometric mixing rule
Step          Temp          Press          PotEng        Density         KinEng         TotEng           Lx             Ly             Lz            Xlo            Xhi            Ylo            Yhi            Zlo            Zhi           Volume           Dt            Time           CPU           T/CPU          S/CPU         CPULeft
38100000   523.05742     -214.82076     -21214608       2.131029       1557.5757     -21213050       603.37953      603.37953      603.37953      1698.3102      2301.6898      1698.3102      2301.6898      1698.3102      2301.6898      2.1967049e+08  0.1            5970000        0              0              0              0
Averages over the last 16 of 31 rows, steps 38250000 to 38400000:
Temp Press PotEng Density KinEng TotEng Lx Ly Lz Xlo Xhi Ylo Yhi Zlo Zhi Volume Dt
302.95 0.309403 -2.1402e+07 2.15208 902.134 -2.14011e+07 601.405 601.405 601.405 1699.3 2300.7 1699.3 2300.7 1699.3 2300.7 2.17521e+08 0.1
Loop time of 27.1774 on 4 procs for 300000 steps with 1000 atoms

# run_style
run_style verlet

# write restart
write_restart ./pgnpmf/7030/equpmf30.res
System init for write_restart ...
Generated 0 of 1 mixed pair_coeff terms from geometric mixing rule
