LAMMPS (23 Jun 2022 - Update 1)
# Read restart
read_restart ./pgnpmf/7030/equpmf2.res
Reading restart file ...
  restart file = 23 Jun 2022, LAMMPS = 23 Jun 2022
  restoring atom style atomic from restart
  orthogonal box = (1084.6616 1084.6616 1084.6616) to (2915.3384 2915.3384 2915.3384)
  restoring pair style table from restart
  1000 atoms
  read_restart CPU = 0.010 seconds

# Settings

pair_style table spline 9941

pair_coeff 1 1 ./pgnpmf/N20.txt DE_GNP 75.6
pair_coeff 2 2 ./pgnpmf/N100.txt DE_GNP 115.92
pair_coeff 1 2 ./pgnpmf/mixed_potential.txt DE_GNP 95.66

#Neigh_list Calc Frequency

neigh_modify delay 0 every 1 check yes

# Saving Frequency (50 frames)

variable ts_save equal 5000

# Dump
#dump_modify 1 first no sort id
dump 2 all cfg 50000 ./pgnpmf/7030/equilibration/trajectory/dumpgen.tens_*.cfg mass type xs ys zs fx fy fz
dump_modify 2 element N20 N100

# thermo_style
thermo_style custom step temp press pe density ke etotal lx ly lz xlo xhi ylo yhi zlo zhi vol dt time cpu tpcpu spcpu cpuremain

# run info
timestep 0.1
thermo 10000

# fix

fix 1 all momentum 1000 linear 1 1 1 angular
variable T equal 300
fix 2 all nvt temp 300 370000 100.0

run 200000
Generated 0 of 1 mixed pair_coeff terms from geometric mixing rule
Unused restart file global fix info:
  fix style: npt, fix ID: 5
  update every 1 steps, delay 0 steps, check yes
Step          Temp          Press          PotEng        Density         KinEng         TotEng           Lx             Ly             Lz            Xlo            Xhi            Ylo            Yhi            Zlo            Zhi           Volume           Dt            Time           CPU           T/CPU          S/CPU         CPULeft
4800000   307.57811      1.0274979     -592669.96      0.076300261    915.91508     -591754.04      1830.6768      1830.6768      1830.6768      1084.6616      2915.3384      1084.6616      2915.3384      1084.6616      2915.3384      6.1352894e+09  0.1            2640000        0              0              0              0
Averages over the last 11 of 21 rows, steps 4900000 to 5000000:
Temp Press PotEng Density KinEng TotEng Lx Ly Lz Xlo Xhi Ylo Yhi Zlo Zhi Volume Dt
277971 10.0812 -512063 0.0763003 827749 315686 1830.68 1830.68 1830.68 1084.66 2915.34 1084.66 2915.34 1084.66 2915.34 6.13529e+09 0.1
Loop time of 4.08863 on 4 procs for 200000 steps with 1000 atoms

unfix 2

fix 3 all nvt temp 370000 370000 $(100.0*dt) #iso 1.0 1.0 $(1000.0*dt)
fix 3 all nvt temp 370000 370000 10

run 500000
Generated 0 of 1 mixed pair_coeff terms from geometric mixing rule
Step          Temp          Press          PotEng        Density         KinEng         TotEng           Lx             Ly             Lz            Xlo            Xhi            Ylo            Yhi            Zlo            Zhi           Volume           Dt            Time           CPU           T/CPU          S/CPU         CPULeft
5000000   359063.36      8.725205      -463403.61      0.076300261    1069229.4      605825.76      1830.6768      1830.6768      1830.6768      1084.6616      2915.3384      1084.6616      2915.3384      1084.6616      2915.3384      6.1352894e+09  0.1            2660000        0              0              0              0
Averages over the last 26 of 51 rows, steps 5250000 to 5500000:
Temp Press PotEng Density KinEng TotEng Lx Ly Lz Xlo Xhi Ylo Yhi Zlo Zhi Volume Dt
368705 8.34854 -245233 0.0763003 1.09794e+06 852707 1830.68 1830.68 1830.68 1084.66 2915.34 1084.66 2915.34 1084.66 2915.34 6.13529e+09 0.1
Loop time of 10.2431 on 4 procs for 500000 steps with 1000 atoms

unfix 3

fix 4 all nvt temp 370000 300 $(100.0*dt)
fix 4 all nvt temp 370000 300 10

run 200000
Generated 0 of 1 mixed pair_coeff terms from geometric mixing rule
Step          Temp          Press          PotEng        Density         KinEng         TotEng           Lx             Ly             Lz            Xlo            Xhi            Ylo            Yhi            Zlo            Zhi           Volume           Dt            Time           CPU           T/CPU          S/CPU         CPULeft
5500000   365674.95      8.0742414     -289801.55      0.076300261    1088917.5      799116         1830.6768      1830.6768      1830.6768      1084.6616      2915.3384      1084.6616      2915.3384      1084.6616      2915.3384      6.1352894e+09  0.1            2710000        0              0              0              0
Averages over the last 11 of 21 rows, steps 5600000 to 5700000:
Temp Press PotEng Density KinEng TotEng Lx Ly Lz Xlo Xhi Ylo Yhi Zlo Zhi Volume Dt
93150.8 1.72786 -375322 0.0763003 277387 -97934.8 1830.68 1830.68 1830.68 1084.66 2915.34 1084.66 2915.34 1084.66 2915.34 6.13529e+09 0.1
Loop time of 4.0536 on 4 procs for 200000 steps with 1000 atoms

unfix 4

fix 5 all npt temp 300 300 $(100.0*dt) iso 1.0 1.0 $(1000.0*dt)
fix 5 all npt temp 300 300 10 iso 1.0 1.0 $(1000.0*dt)
fix 5 all npt temp 300 300 10 iso 1.0 1.0 100

run 300000
Generated 0 of 1 mixed pair_coeff terms from geometric mixing rule
Step          Temp          Press          PotEng        Density         KinEng         TotEng           Lx             Ly             Lz            Xlo            Xhi            Ylo            Yhi            Zlo            Zhi           Volume           Dt            Time           CPU           T/CPU          S/CPU         CPULeft
5700000   492.48309     -0.89156967    -398982.63      0.076300261    1466.5305     -397516.1       1830.6768      1830.6768      1830.6768      1084.6616      2915.3384      1084.6616      2915.3384      1084.6616      2915.3384      6.1352894e+09  0.1            2730000        0              0              0              0
Averages over the last 16 of 31 rows, steps 5850000 to 6000000:
Temp Press PotEng Density KinEng TotEng Lx Ly Lz Xlo Xhi Ylo Yhi Zlo Zhi Volume Dt
304.326 0.988164 -660039 0.108731 906.232 -659132 1627.6 1627.6 1627.6 1186.2 2813.8 1186.2 2813.8 1186.2 2813.8 4.31479e+09 0.1
Loop time of 9.60103 on 4 procs for 300000 steps with 1000 atoms

# run_style
run_style verlet

# write restart
write_restart ./pgnpmf/7030/equpmf3.res
System init for write_restart ...
Generated 0 of 1 mixed pair_coeff terms from geometric mixing rule
