LAMMPS (23 Jun 2022 - Update 1)
# Read restart
read_restart ./pgnpmf/7030/equpmf66.res
Reading restart file ...
  restart file = 23 Jun 2022, LAMMPS = 23 Jun 2022
  restoring atom style atomic from restart
  orthogonal box = (1700.4049 1700.4049 1700.4049) to (2299.5951 2299.5951 2299.5951)
  restoring pair style table from restart
  1000 atoms
  read_restart CPU = 0.007 seconds

# Settings

pair_style table spline 9941

pair_coeff 1 1 ./pgnpmf/N20.txt DE_GNP 75.6
pair_coeff 2 2 ./pgnpmf/N100.txt DE_GNP 115.92
pair_coeff 1 2 ./pgnpmf/mixed_potential.txt DE_GNP 95.66

#Neigh_list Calc Frequency

neigh_modify delay 0 every 1 check yes

# Saving Frequency (50 frames)

variable ts_save equal 5000

# Dump
#dump_modify 1 first no sort id
dump 2 all cfg 50000 ./pgnpmf/7030/equilibration/trajectory/dumpgen.tens_*.cfg mass type xs ys zs fx fy fz
dump_modify 2 element N20 N100

# thermo_style
thermo_style custom step temp press pe density ke etotal lx ly lz xlo xhi ylo yhi zlo zhi vol dt time cpu tpcpu spcpu cpuremain

# run info
timestep 0.1
thermo 10000

# fix

fix 1 all momentum 1000 linear 1 1 1 angular
variable T equal 300
fix 2 all nvt temp 300 370000 100.0

run 200000
Generated 0 of 1 mixed pair_coeff terms from geometric mixing rule
Unused restart file global fix info:
  fix style: npt, fix ID: 5
  update every 1 steps, delay 0 steps, check yes
Step          Temp          Press          PotEng        Density         KinEng         TotEng           Lx             Ly             Lz            Xlo            Xhi            Ylo            Yhi            Zlo            Zhi           Volume           Dt            Time           CPU           T/CPU          S/CPU         CPULeft
81600000   293.98764     -0.49101669    -21454540       2.1760397      875.44499     -21453664       599.19027      599.19027      599.19027      1700.4049      2299.5951      1700.4049      2299.5951      1700.4049      2299.5951      2.1512667e+08  0.1            10320000       0              0              0              0
Averages over the last 11 of 21 rows, steps 81700000 to 81800000:
Temp Press PotEng Density KinEng TotEng Lx Ly Lz Xlo Xhi Ylo Yhi Zlo Zhi Volume Dt
274548 2607.49 -2.08657e+07 2.17604 817558 -2.00482e+07 599.19 599.19 599.19 1700.4 2299.6 1700.4 2299.6 1700.4 2299.6 2.15127e+08 0.1
Loop time of 16.0505 on 4 procs for 200000 steps with 1000 atoms

unfix 2

fix 3 all nvt temp 370000 370000 $(100.0*dt) #iso 1.0 1.0 $(1000.0*dt)
fix 3 all nvt temp 370000 370000 10

run 500000
Generated 0 of 1 mixed pair_coeff terms from geometric mixing rule
Step          Temp          Press          PotEng        Density         KinEng         TotEng           Lx             Ly             Lz            Xlo            Xhi            Ylo            Yhi            Zlo            Zhi           Volume           Dt            Time           CPU           T/CPU          S/CPU         CPULeft
81800000   357665.74      3574.95       -20590875       2.1760397      1065067.5     -19525807       599.19027      599.19027      599.19027      1700.4049      2299.5951      1700.4049      2299.5951      1700.4049      2299.5951      2.1512667e+08  0.1            10340000       0              0              0              0
Averages over the last 26 of 51 rows, steps 82050000 to 82300000:
Temp Press PotEng Density KinEng TotEng Lx Ly Lz Xlo Xhi Ylo Yhi Zlo Zhi Volume Dt
370197 3371.71 -2.05494e+07 2.17604 1.10238e+06 -1.9447e+07 599.19 599.19 599.19 1700.4 2299.6 1700.4 2299.6 1700.4 2299.6 2.15127e+08 0.1
Loop time of 40.2009 on 4 procs for 500000 steps with 1000 atoms

unfix 3

fix 4 all nvt temp 370000 300 $(100.0*dt)
fix 4 all nvt temp 370000 300 10

run 200000
Generated 0 of 1 mixed pair_coeff terms from geometric mixing rule
Step          Temp          Press          PotEng        Density         KinEng         TotEng           Lx             Ly             Lz            Xlo            Xhi            Ylo            Yhi            Zlo            Zhi           Volume           Dt            Time           CPU           T/CPU          S/CPU         CPULeft
82300000   365392.87      3407.6843     -20513795       2.1760397      1088077.6     -19425717       599.19027      599.19027      599.19027      1700.4049      2299.5951      1700.4049      2299.5951      1700.4049      2299.5951      2.1512667e+08  0.1            10390000       0              0              0              0
Averages over the last 11 of 21 rows, steps 82400000 to 82500000:
Temp Press PotEng Density KinEng TotEng Lx Ly Lz Xlo Xhi Ylo Yhi Zlo Zhi Volume Dt
90764.5 1055.42 -2.11141e+07 2.17604 270281 -2.08438e+07 599.19 599.19 599.19 1700.4 2299.6 1700.4 2299.6 1700.4 2299.6 2.15127e+08 0.1
Loop time of 15.6825 on 4 procs for 200000 steps with 1000 atoms

unfix 4

fix 5 all npt temp 300 300 $(100.0*dt) iso 1.0 1.0 $(1000.0*dt)
fix 5 all npt temp 300 300 10 iso 1.0 1.0 $(1000.0*dt)
fix 5 all npt temp 300 300 10 iso 1.0 1.0 100

run 300000
Generated 0 of 1 mixed pair_coeff terms from geometric mixing rule
Step          Temp          Press          PotEng        Density         KinEng         TotEng           Lx             Ly             Lz            Xlo            Xhi            Ylo            Yhi            Zlo            Zhi           Volume           Dt            Time           CPU           T/CPU          S/CPU         CPULeft
82500000   525.06318      251.72566     -21319155       2.1760397      1563.5485     -21317592       599.19027      599.19027      599.19027      1700.4049      2299.5951      1700.4049      2299.5951      1700.4049      2299.5951      2.1512667e+08  0.1            10410000       0              0              0              0
Averages over the last 16 of 31 rows, steps 82650000 to 82800000:
Temp Press PotEng Density KinEng TotEng Lx Ly Lz Xlo Xhi Ylo Yhi Zlo Zhi Volume Dt
300.906 1.66633 -2.14206e+07 2.17574 896.047 -2.14197e+07 599.218 599.218 599.218 1700.39 2299.61 1700.39 2299.61 1700.39 2299.61 2.15157e+08 0.1
Loop time of 27.3214 on 4 procs for 300000 steps with 1000 atoms

# run_style
run_style verlet

# write restart
write_restart ./pgnpmf/7030/equpmf67.res
System init for write_restart ...
Generated 0 of 1 mixed pair_coeff terms from geometric mixing rule
