LAMMPS (23 Jun 2022 - Update 1)
# Read restart
read_restart ./pgnpmf/7030/equpmf15.res
Reading restart file ...
  restart file = 23 Jun 2022, LAMMPS = 23 Jun 2022
  restoring atom style atomic from restart
  orthogonal box = (1586.1822 1586.1822 1586.1822) to (2413.8178 2413.8178 2413.8178)
  restoring pair style table from restart
  1000 atoms
  read_restart CPU = 0.008 seconds

# Settings

pair_style table spline 9941

pair_coeff 1 1 ./pgnpmf/N20.txt DE_GNP 75.6
pair_coeff 2 2 ./pgnpmf/N100.txt DE_GNP 115.92
pair_coeff 1 2 ./pgnpmf/mixed_potential.txt DE_GNP 95.66

#Neigh_list Calc Frequency

neigh_modify delay 0 every 1 check yes

# Saving Frequency (50 frames)

variable ts_save equal 5000

# Dump
#dump_modify 1 first no sort id
dump 2 all cfg 50000 ./pgnpmf/7030/equilibration/trajectory/dumpgen.tens_*.cfg mass type xs ys zs fx fy fz
dump_modify 2 element N20 N100

# thermo_style
thermo_style custom step temp press pe density ke etotal lx ly lz xlo xhi ylo yhi zlo zhi vol dt time cpu tpcpu spcpu cpuremain

# run info
timestep 0.1
thermo 10000

# fix

fix 1 all momentum 1000 linear 1 1 1 angular
variable T equal 300
fix 2 all nvt temp 300 370000 100.0

run 200000
Generated 0 of 1 mixed pair_coeff terms from geometric mixing rule
Unused restart file global fix info:
  fix style: npt, fix ID: 5
  update every 1 steps, delay 0 steps, check yes
Step          Temp          Press          PotEng        Density         KinEng         TotEng           Lx             Ly             Lz            Xlo            Xhi            Ylo            Yhi            Zlo            Zhi           Volume           Dt            Time           CPU           T/CPU          S/CPU         CPULeft
20400000   308.57028      0.37475402    -11144920       0.82574036     918.8696      -11144001       827.63565      827.63565      827.63565      1586.1822      2413.8178      1586.1822      2413.8178      1586.1822      2413.8178      5.6691451e+08  0.1            4200000        0              0              0              0
Averages over the last 11 of 21 rows, steps 20500000 to 20600000:
Temp Press PotEng Density KinEng TotEng Lx Ly Lz Xlo Xhi Ylo Yhi Zlo Zhi Volume Dt
278094 150.606 -1.14365e+07 0.82574 828116 -1.06084e+07 827.636 827.636 827.636 1586.18 2413.82 1586.18 2413.82 1586.18 2413.82 5.66915e+08 0.1
Loop time of 9.45845 on 4 procs for 200000 steps with 1000 atoms

unfix 2

fix 3 all nvt temp 370000 370000 $(100.0*dt) #iso 1.0 1.0 $(1000.0*dt)
fix 3 all nvt temp 370000 370000 10

run 500000
Generated 0 of 1 mixed pair_coeff terms from geometric mixing rule
Step          Temp          Press          PotEng        Density         KinEng         TotEng           Lx             Ly             Lz            Xlo            Xhi            Ylo            Yhi            Zlo            Zhi           Volume           Dt            Time           CPU           T/CPU          S/CPU         CPULeft
20600000   365082.88      209.86303     -11436419       0.82574036     1087154.5     -10349265       827.63565      827.63565      827.63565      1586.1822      2413.8178      1586.1822      2413.8178      1586.1822      2413.8178      5.6691451e+08  0.1            4220000        0              0              0              0
Averages over the last 26 of 51 rows, steps 20850000 to 21100000:
Temp Press PotEng Density KinEng TotEng Lx Ly Lz Xlo Xhi Ylo Yhi Zlo Zhi Volume Dt
372277 48.2055 -1.10889e+07 0.82574 1.10858e+06 -9.98028e+06 827.636 827.636 827.636 1586.18 2413.82 1586.18 2413.82 1586.18 2413.82 5.66915e+08 0.1
Loop time of 24.3217 on 4 procs for 500000 steps with 1000 atoms

unfix 3

fix 4 all nvt temp 370000 300 $(100.0*dt)
fix 4 all nvt temp 370000 300 10

run 200000
Generated 0 of 1 mixed pair_coeff terms from geometric mixing rule
Step          Temp          Press          PotEng        Density         KinEng         TotEng           Lx             Ly             Lz            Xlo            Xhi            Ylo            Yhi            Zlo            Zhi           Volume           Dt            Time           CPU           T/CPU          S/CPU         CPULeft
21100000   368048.67      57.695911     -11046996       0.82574036     1095986.1     -9951010.4      827.63565      827.63565      827.63565      1586.1822      2413.8178      1586.1822      2413.8178      1586.1822      2413.8178      5.6691451e+08  0.1            4270000        0              0              0              0
Averages over the last 11 of 21 rows, steps 21200000 to 21300000:
Temp Press PotEng Density KinEng TotEng Lx Ly Lz Xlo Xhi Ylo Yhi Zlo Zhi Volume Dt
92560.8 -218.486 -1.14952e+07 0.82574 275630 -1.12196e+07 827.636 827.636 827.636 1586.18 2413.82 1586.18 2413.82 1586.18 2413.82 5.66915e+08 0.1
Loop time of 9.98478 on 4 procs for 200000 steps with 1000 atoms

unfix 4

fix 5 all npt temp 300 300 $(100.0*dt) iso 1.0 1.0 $(1000.0*dt)
fix 5 all npt temp 300 300 10 iso 1.0 1.0 $(1000.0*dt)
fix 5 all npt temp 300 300 10 iso 1.0 1.0 100

run 300000
Generated 0 of 1 mixed pair_coeff terms from geometric mixing rule
Step          Temp          Press          PotEng        Density         KinEng         TotEng           Lx             Ly             Lz            Xlo            Xhi            Ylo            Yhi            Zlo            Zhi           Volume           Dt            Time           CPU           T/CPU          S/CPU         CPULeft
21300000   516.52953     -315.53666     -11694025       0.82574036     1538.1367     -11692487       827.63565      827.63565      827.63565      1586.1822      2413.8178      1586.1822      2413.8178      1586.1822      2413.8178      5.6691451e+08  0.1            4290000        0              0              0              0
Averages over the last 16 of 31 rows, steps 21450000 to 21600000:
Temp Press PotEng Density KinEng TotEng Lx Ly Lz Xlo Xhi Ylo Yhi Zlo Zhi Volume Dt
309.707 1.51668 -1.21959e+07 0.889271 922.256 -1.21949e+07 807.445 807.445 807.445 1596.28 2403.72 1596.28 2403.72 1596.28 2403.72 5.26434e+08 0.1
Loop time of 18.6961 on 4 procs for 300000 steps with 1000 atoms

# run_style
run_style verlet

# write restart
write_restart ./pgnpmf/7030/equpmf16.res
System init for write_restart ...
Generated 0 of 1 mixed pair_coeff terms from geometric mixing rule
