LAMMPS (23 Jun 2022 - Update 1)
# Read restart
read_restart ./pgnpmf/7030/equpmf48.res
Reading restart file ...
  restart file = 23 Jun 2022, LAMMPS = 23 Jun 2022
  restoring atom style atomic from restart
  orthogonal box = (1700.072 1700.072 1700.072) to (2299.928 2299.928 2299.928)
  restoring pair style table from restart
  1000 atoms
  read_restart CPU = 0.006 seconds

# Settings

pair_style table spline 9941

pair_coeff 1 1 ./pgnpmf/N20.txt DE_GNP 75.6
pair_coeff 2 2 ./pgnpmf/N100.txt DE_GNP 115.92
pair_coeff 1 2 ./pgnpmf/mixed_potential.txt DE_GNP 95.66

#Neigh_list Calc Frequency

neigh_modify delay 0 every 1 check yes

# Saving Frequency (50 frames)

variable ts_save equal 5000

# Dump
#dump_modify 1 first no sort id
dump 2 all cfg 50000 ./pgnpmf/7030/equilibration/trajectory/dumpgen.tens_*.cfg mass type xs ys zs fx fy fz
dump_modify 2 element N20 N100

# thermo_style
thermo_style custom step temp press pe density ke etotal lx ly lz xlo xhi ylo yhi zlo zhi vol dt time cpu tpcpu spcpu cpuremain

# run info
timestep 0.1
thermo 10000

# fix

fix 1 all momentum 1000 linear 1 1 1 angular
variable T equal 300
fix 2 all nvt temp 300 370000 100.0

run 200000
Generated 0 of 1 mixed pair_coeff terms from geometric mixing rule
Unused restart file global fix info:
  fix style: npt, fix ID: 5
  update every 1 steps, delay 0 steps, check yes
Step          Temp          Press          PotEng        Density         KinEng         TotEng           Lx             Ly             Lz            Xlo            Xhi            Ylo            Yhi            Zlo            Zhi           Volume           Dt            Time           CPU           T/CPU          S/CPU         CPULeft
60000000   295.17125      1.8769016     -21435070       2.1688029      878.96958     -21434191       599.85599      599.85599      599.85599      1700.072       2299.928       1700.072       2299.928       1700.072       2299.928       2.158445e+08   0.1            8160000        0              0              0              0
Averages over the last 11 of 21 rows, steps 60100000 to 60200000:
Temp Press PotEng Density KinEng TotEng Lx Ly Lz Xlo Xhi Ylo Yhi Zlo Zhi Volume Dt
278391 2367.73 -2.09169e+07 2.1688 829001 -2.00879e+07 599.856 599.856 599.856 1700.07 2299.93 1700.07 2299.93 1700.07 2299.93 2.15844e+08 0.1
Loop time of 15.748 on 4 procs for 200000 steps with 1000 atoms

unfix 2

fix 3 all nvt temp 370000 370000 $(100.0*dt) #iso 1.0 1.0 $(1000.0*dt)
fix 3 all nvt temp 370000 370000 10

run 500000
Generated 0 of 1 mixed pair_coeff terms from geometric mixing rule
Step          Temp          Press          PotEng        Density         KinEng         TotEng           Lx             Ly             Lz            Xlo            Xhi            Ylo            Yhi            Zlo            Zhi           Volume           Dt            Time           CPU           T/CPU          S/CPU         CPULeft
60200000   374991.76      3589.6321     -20576374       2.1688029      1116661.4     -19459713       599.85599      599.85599      599.85599      1700.072       2299.928       1700.072       2299.928       1700.072       2299.928       2.158445e+08   0.1            8180000        0              0              0              0
Averages over the last 26 of 51 rows, steps 60450000 to 60700000:
Temp Press PotEng Density KinEng TotEng Lx Ly Lz Xlo Xhi Ylo Yhi Zlo Zhi Volume Dt
367004 3475.31 -2.05076e+07 2.1688 1.09288e+06 -1.94148e+07 599.856 599.856 599.856 1700.07 2299.93 1700.07 2299.93 1700.07 2299.93 2.15844e+08 0.1
Loop time of 39.6779 on 4 procs for 500000 steps with 1000 atoms

unfix 3

fix 4 all nvt temp 370000 300 $(100.0*dt)
fix 4 all nvt temp 370000 300 10

run 200000
Generated 0 of 1 mixed pair_coeff terms from geometric mixing rule
Step          Temp          Press          PotEng        Density         KinEng         TotEng           Lx             Ly             Lz            Xlo            Xhi            Ylo            Yhi            Zlo            Zhi           Volume           Dt            Time           CPU           T/CPU          S/CPU         CPULeft
60700000   360790.6       3330.9672     -20561288       2.1688029      1074372.8     -19486915       599.85599      599.85599      599.85599      1700.072       2299.928       1700.072       2299.928       1700.072       2299.928       2.158445e+08   0.1            8230000        0              0              0              0
Averages over the last 11 of 21 rows, steps 60800000 to 60900000:
Temp Press PotEng Density KinEng TotEng Lx Ly Lz Xlo Xhi Ylo Yhi Zlo Zhi Volume Dt
92643.9 1080.9 -2.11606e+07 2.1688 275878 -2.08847e+07 599.856 599.856 599.856 1700.07 2299.93 1700.07 2299.93 1700.07 2299.93 2.15844e+08 0.1
Loop time of 15.6232 on 4 procs for 200000 steps with 1000 atoms

unfix 4

fix 5 all npt temp 300 300 $(100.0*dt) iso 1.0 1.0 $(1000.0*dt)
fix 5 all npt temp 300 300 10 iso 1.0 1.0 $(1000.0*dt)
fix 5 all npt temp 300 300 10 iso 1.0 1.0 100

run 300000
Generated 0 of 1 mixed pair_coeff terms from geometric mixing rule
Step          Temp          Press          PotEng        Density         KinEng         TotEng           Lx             Ly             Lz            Xlo            Xhi            Ylo            Yhi            Zlo            Zhi           Volume           Dt            Time           CPU           T/CPU          S/CPU         CPULeft
60900000   524.14262      291.90849     -21402179       2.1688029      1560.8072     -21400618       599.85599      599.85599      599.85599      1700.072       2299.928       1700.072       2299.928       1700.072       2299.928       2.158445e+08   0.1            8250000        0              0              0              0
Averages over the last 16 of 31 rows, steps 61050000 to 61200000:
Temp Press PotEng Density KinEng TotEng Lx Ly Lz Xlo Xhi Ylo Yhi Zlo Zhi Volume Dt
304.183 1.57883 -2.14597e+07 2.16712 905.805 -2.14588e+07 600.011 600.011 600.011 1699.99 2300.01 1699.99 2300.01 1699.99 2300.01 2.16012e+08 0.1
Loop time of 27.6528 on 4 procs for 300000 steps with 1000 atoms

# run_style
run_style verlet

# write restart
write_restart ./pgnpmf/7030/equpmf49.res
System init for write_restart ...
Generated 0 of 1 mixed pair_coeff terms from geometric mixing rule
