LAMMPS (23 Jun 2022 - Update 1)
# Read restart
read_restart ./pgnpmf/5050/equpmf18.res
Reading restart file ...
  restart file = 23 Jun 2022, LAMMPS = 23 Jun 2022
  restoring atom style atomic from restart
  orthogonal box = (1583.5456 1583.5456 1583.5456) to (2416.4544 2416.4544 2416.4544)
  restoring pair style table from restart
  1000 atoms
  read_restart CPU = 0.004 seconds

# Settings

pair_style table spline 9941

pair_coeff 1 1 ./pgnpmf/N20.txt DE_GNP 75.6
pair_coeff 2 2 ./pgnpmf/N100.txt DE_GNP 115.92
pair_coeff 1 2 ./pgnpmf/mixed_potential.txt DE_GNP 95.66

#Neigh_list Calc Frequency

neigh_modify delay 0 every 1 check yes

# Saving Frequency (50 frames)

variable ts_save equal 5000

# Dump
#dump_modify 1 first no sort id
dump 2 all cfg 50000 ./pgnpmf/5050/equilibration/trajectory/dumpgen.tens_*.cfg mass type xs ys zs fx fy fz
dump_modify 2 element N20 N100

# thermo_style
thermo_style custom step temp press pe density ke etotal lx ly lz xlo xhi ylo yhi zlo zhi vol dt time cpu tpcpu spcpu cpuremain

# run info
timestep 0.25
thermo 200

# fix

fix 1 all momentum 1000 linear 1 1 1 angular
variable T equal 300
fix 2 all nvt temp 300 370000 100.0

run 100000
Generated 0 of 1 mixed pair_coeff terms from geometric mixing rule
Unused restart file global fix info:
  fix style: npt, fix ID: 5
  update every 1 steps, delay 0 steps, check yes
Step          Temp          Press          PotEng        Density         KinEng         TotEng           Lx             Ly             Lz            Xlo            Xhi            Ylo            Yhi            Zlo            Zhi           Volume           Dt            Time           CPU           T/CPU          S/CPU         CPULeft
19010000   310.91952     -2.8665973     -26291920       0.92522312     925.86523     -26290994       832.9088       832.9088       832.9088       1583.5456      2416.4544      1583.5456      2416.4544      1583.5456      2416.4544      5.7781972e+08  0.25           5510000        0              0              0              0
Averages over the last 251 of 501 rows, steps 19060000 to 19110000:
Temp Press PotEng Density KinEng TotEng Lx Ly Lz Xlo Xhi Ylo Yhi Zlo Zhi Volume Dt
277262 215.592 -2.62219e+07 0.925223 825640 -2.53962e+07 832.909 832.909 832.909 1583.55 2416.45 1583.55 2416.45 1583.55 2416.45 5.7782e+08 0.25
Loop time of 5.60047 on 4 procs for 100000 steps with 1000 atoms

unfix 2

fix 3 all nvt temp 370000 370000 $(100.0*dt) #iso 1.0 1.0 $(1000.0*dt)
fix 3 all nvt temp 370000 370000 25

run 500000
Generated 0 of 1 mixed pair_coeff terms from geometric mixing rule
Step          Temp          Press          PotEng        Density         KinEng         TotEng           Lx             Ly             Lz            Xlo            Xhi            Ylo            Yhi            Zlo            Zhi           Volume           Dt            Time           CPU           T/CPU          S/CPU         CPULeft
19110000   370419.85      308.71718     -26038468       0.92522312     1103047.1     -24935421       832.9088       832.9088       832.9088       1583.5456      2416.4544      1583.5456      2416.4544      1583.5456      2416.4544      5.7781972e+08  0.25           5535000        0              0              0              0
Averages over the last 1251 of 2501 rows, steps 19360000 to 19610000:
Temp Press PotEng Density KinEng TotEng Lx Ly Lz Xlo Xhi Ylo Yhi Zlo Zhi Volume Dt
370060 46.5941 -2.51092e+07 0.925223 1.10198e+06 -2.40072e+07 832.909 832.909 832.909 1583.55 2416.45 1583.55 2416.45 1583.55 2416.45 5.7782e+08 0.25
Loop time of 27.5125 on 4 procs for 500000 steps with 1000 atoms

unfix 3

fix 4 all nvt temp 370000 300 100.0

run 100000
Generated 0 of 1 mixed pair_coeff terms from geometric mixing rule
Step          Temp          Press          PotEng        Density         KinEng         TotEng           Lx             Ly             Lz            Xlo            Xhi            Ylo            Yhi            Zlo            Zhi           Volume           Dt            Time           CPU           T/CPU          S/CPU         CPULeft
19610000   375036.26      19.22005      -24897770       0.92522312     1116793.9     -23780976       832.9088       832.9088       832.9088       1583.5456      2416.4544      1583.5456      2416.4544      1583.5456      2416.4544      5.7781972e+08  0.25           5660000        0              0              0              0
Averages over the last 251 of 501 rows, steps 19660000 to 19710000:
Temp Press PotEng Density KinEng TotEng Lx Ly Lz Xlo Xhi Ylo Yhi Zlo Zhi Volume Dt
93622.1 -381.262 -2.55254e+07 0.925223 278791 -2.52466e+07 832.909 832.909 832.909 1583.55 2416.45 1583.55 2416.45 1583.55 2416.45 5.7782e+08 0.25
Loop time of 5.44838 on 4 procs for 100000 steps with 1000 atoms

unfix 4

fix 5 all npt temp 300 300 $(100.0*dt) iso 1.0 1.0 $(1000.0*dt)
fix 5 all npt temp 300 300 25 iso 1.0 1.0 $(1000.0*dt)
fix 5 all npt temp 300 300 25 iso 1.0 1.0 250

run 300000
Generated 0 of 1 mixed pair_coeff terms from geometric mixing rule
Step          Temp          Press          PotEng        Density         KinEng         TotEng           Lx             Ly             Lz            Xlo            Xhi            Ylo            Yhi            Zlo            Zhi           Volume           Dt            Time           CPU           T/CPU          S/CPU         CPULeft
19710000   2346.1616     -539.84512     -25828392       0.92522312     6986.4685     -25821406       832.9088       832.9088       832.9088       1583.5456      2416.4544      1583.5456      2416.4544      1583.5456      2416.4544      5.7781972e+08  0.25           5685000        0              0              0              0
Averages over the last 751 of 1501 rows, steps 19860000 to 20010000:
Temp Press PotEng Density KinEng TotEng Lx Ly Lz Xlo Xhi Ylo Yhi Zlo Zhi Volume Dt
313.626 0.885672 -2.66895e+07 0.987834 933.925 -2.66886e+07 814.93 814.93 814.93 1592.54 2407.46 1592.54 2407.46 1592.54 2407.46 5.41207e+08 0.25
Loop time of 20.209 on 4 procs for 300000 steps with 1000 atoms

# run_style
run_style verlet

# write restart
write_restart ./pgnpmf/5050/equpmf19.res
System init for write_restart ...
Generated 0 of 1 mixed pair_coeff terms from geometric mixing rule
