LAMMPS (23 Jun 2022 - Update 1)
# Read restart
read_restart ./pgnpmf/5050/equpmf39.res
Reading restart file ...
  restart file = 23 Jun 2022, LAMMPS = 23 Jun 2022
  restoring atom style atomic from restart
  orthogonal box = (1674.1163 1674.1163 1674.1163) to (2325.8837 2325.8837 2325.8837)
  restoring pair style table from restart
  1000 atoms
  read_restart CPU = 0.004 seconds

# Settings

pair_style table spline 9941

pair_coeff 1 1 ./pgnpmf/N20.txt DE_GNP 75.6
pair_coeff 2 2 ./pgnpmf/N100.txt DE_GNP 115.92
pair_coeff 1 2 ./pgnpmf/mixed_potential.txt DE_GNP 95.66

#Neigh_list Calc Frequency

neigh_modify delay 0 every 1 check yes

# Saving Frequency (50 frames)

variable ts_save equal 5000

# Dump
#dump_modify 1 first no sort id
dump 2 all cfg 50000 ./pgnpmf/5050/equilibration/trajectory/dumpgen.tens_*.cfg mass type xs ys zs fx fy fz
dump_modify 2 element N20 N100

# thermo_style
thermo_style custom step temp press pe density ke etotal lx ly lz xlo xhi ylo yhi zlo zhi vol dt time cpu tpcpu spcpu cpuremain

# run info
timestep 0.25
thermo 200

# fix

fix 1 all momentum 1000 linear 1 1 1 angular
variable T equal 300
fix 2 all nvt temp 300 370000 100.0

run 100000
Generated 0 of 1 mixed pair_coeff terms from geometric mixing rule
Unused restart file global fix info:
  fix style: npt, fix ID: 5
  update every 1 steps, delay 0 steps, check yes
Step          Temp          Press          PotEng        Density         KinEng         TotEng           Lx             Ly             Lz            Xlo            Xhi            Ylo            Yhi            Zlo            Zhi           Volume           Dt            Time           CPU           T/CPU          S/CPU         CPULeft
40010000   288.5558       6.4486473     -33246612       1.9309048      859.26991     -33245753       651.76744      651.76744      651.76744      1674.1163      2325.8837      1674.1163      2325.8837      1674.1163      2325.8837      2.7687132e+08  0.25           10760000       0              0              0              0
Averages over the last 251 of 501 rows, steps 40060000 to 40110000:
Temp Press PotEng Density KinEng TotEng Lx Ly Lz Xlo Xhi Ylo Yhi Zlo Zhi Volume Dt
277380 2177.1 -3.26184e+07 1.9309 825990 -3.17924e+07 651.767 651.767 651.767 1674.12 2325.88 1674.12 2325.88 1674.12 2325.88 2.76871e+08 0.25
Loop time of 7.40831 on 4 procs for 100000 steps with 1000 atoms

unfix 2

fix 3 all nvt temp 370000 370000 $(100.0*dt) #iso 1.0 1.0 $(1000.0*dt)
fix 3 all nvt temp 370000 370000 25

run 500000
Generated 0 of 1 mixed pair_coeff terms from geometric mixing rule
Step          Temp          Press          PotEng        Density         KinEng         TotEng           Lx             Ly             Lz            Xlo            Xhi            Ylo            Yhi            Zlo            Zhi           Volume           Dt            Time           CPU           T/CPU          S/CPU         CPULeft
40110000   361319.18      2973.3951     -32436595       1.9309048      1075946.8     -31360648       651.76744      651.76744      651.76744      1674.1163      2325.8837      1674.1163      2325.8837      1674.1163      2325.8837      2.7687132e+08  0.25           10785000       0              0              0              0
Averages over the last 1251 of 2501 rows, steps 40360000 to 40610000:
Temp Press PotEng Density KinEng TotEng Lx Ly Lz Xlo Xhi Ylo Yhi Zlo Zhi Volume Dt
370263 2797.08 -3.22104e+07 1.9309 1.10258e+06 -3.11078e+07 651.767 651.767 651.767 1674.12 2325.88 1674.12 2325.88 1674.12 2325.88 2.76871e+08 0.25
Loop time of 37.2745 on 4 procs for 500000 steps with 1000 atoms

unfix 3

fix 4 all nvt temp 370000 300 100.0

run 100000
Generated 0 of 1 mixed pair_coeff terms from geometric mixing rule
Step          Temp          Press          PotEng        Density         KinEng         TotEng           Lx             Ly             Lz            Xlo            Xhi            Ylo            Yhi            Zlo            Zhi           Volume           Dt            Time           CPU           T/CPU          S/CPU         CPULeft
40610000   364592.4       2832.1983     -32171547       1.9309048      1085693.9     -31085853       651.76744      651.76744      651.76744      1674.1163      2325.8837      1674.1163      2325.8837      1674.1163      2325.8837      2.7687132e+08  0.25           10910000       0              0              0              0
Averages over the last 251 of 501 rows, steps 40660000 to 40710000:
Temp Press PotEng Density KinEng TotEng Lx Ly Lz Xlo Xhi Ylo Yhi Zlo Zhi Volume Dt
93704.7 946.336 -3.29381e+07 1.9309 279037 -3.26591e+07 651.767 651.767 651.767 1674.12 2325.88 1674.12 2325.88 1674.12 2325.88 2.76871e+08 0.25
Loop time of 7.28369 on 4 procs for 100000 steps with 1000 atoms

unfix 4

fix 5 all npt temp 300 300 $(100.0*dt) iso 1.0 1.0 $(1000.0*dt)
fix 5 all npt temp 300 300 25 iso 1.0 1.0 $(1000.0*dt)
fix 5 all npt temp 300 300 25 iso 1.0 1.0 250

run 300000
Generated 0 of 1 mixed pair_coeff terms from geometric mixing rule
Step          Temp          Press          PotEng        Density         KinEng         TotEng           Lx             Ly             Lz            Xlo            Xhi            Ylo            Yhi            Zlo            Zhi           Volume           Dt            Time           CPU           T/CPU          S/CPU         CPULeft
40710000   2409.4049      294.09573     -33188308       1.9309048      7174.7965     -33181133       651.76744      651.76744      651.76744      1674.1163      2325.8837      1674.1163      2325.8837      1674.1163      2325.8837      2.7687132e+08  0.25           10935000       0              0              0              0
Averages over the last 751 of 1501 rows, steps 40860000 to 41010000:
Temp Press PotEng Density KinEng TotEng Lx Ly Lz Xlo Xhi Ylo Yhi Zlo Zhi Volume Dt
301.957 1.13148 -3.3216e+07 1.92768 899.177 -3.32151e+07 652.131 652.131 652.131 1673.93 2326.07 1673.93 2326.07 1673.93 2326.07 2.77334e+08 0.25
Loop time of 26.118 on 4 procs for 300000 steps with 1000 atoms

# run_style
run_style verlet

# write restart
write_restart ./pgnpmf/5050/equpmf40.res
System init for write_restart ...
Generated 0 of 1 mixed pair_coeff terms from geometric mixing rule
