LAMMPS (23 Jun 2022 - Update 1)
# Read restart
read_restart ./pgnpmf/5050/equpmf65.res
Reading restart file ...
  restart file = 23 Jun 2022, LAMMPS = 23 Jun 2022
  restoring atom style atomic from restart
  orthogonal box = (1674.5511 1674.5511 1674.5511) to (2325.4489 2325.4489 2325.4489)
  restoring pair style table from restart
  1000 atoms
  read_restart CPU = 0.005 seconds

# Settings

pair_style table spline 9941

pair_coeff 1 1 ./pgnpmf/N20.txt DE_GNP 75.6
pair_coeff 2 2 ./pgnpmf/N100.txt DE_GNP 115.92
pair_coeff 1 2 ./pgnpmf/mixed_potential.txt DE_GNP 95.66

#Neigh_list Calc Frequency

neigh_modify delay 0 every 1 check yes

# Saving Frequency (50 frames)

variable ts_save equal 5000

# Dump
#dump_modify 1 first no sort id
dump 2 all cfg 50000 ./pgnpmf/5050/equilibration/trajectory/dumpgen.tens_*.cfg mass type xs ys zs fx fy fz
dump_modify 2 element N20 N100

# thermo_style
thermo_style custom step temp press pe density ke etotal lx ly lz xlo xhi ylo yhi zlo zhi vol dt time cpu tpcpu spcpu cpuremain

# run info
timestep 0.25
thermo 200

# fix

fix 1 all momentum 1000 linear 1 1 1 angular
variable T equal 300
fix 2 all nvt temp 300 370000 100.0

run 100000
Generated 0 of 1 mixed pair_coeff terms from geometric mixing rule
Unused restart file global fix info:
  fix style: npt, fix ID: 5
  update every 1 steps, delay 0 steps, check yes
Step          Temp          Press          PotEng        Density         KinEng         TotEng           Lx             Ly             Lz            Xlo            Xhi            Ylo            Yhi            Zlo            Zhi           Volume           Dt            Time           CPU           T/CPU          S/CPU         CPULeft
66010000   308.37448      5.7498538     -33344079       1.9386548      918.28654     -33343161       650.89777      650.89777      650.89777      1674.5511      2325.4489      1674.5511      2325.4489      1674.5511      2325.4489      2.757645e+08   0.25           17260000       0              0              0              0
Averages over the last 251 of 501 rows, steps 66060000 to 66110000:
Temp Press PotEng Density KinEng TotEng Lx Ly Lz Xlo Xhi Ylo Yhi Zlo Zhi Volume Dt
276725 2148.55 -3.26727e+07 1.93865 824040 -3.18487e+07 650.898 650.898 650.898 1674.55 2325.45 1674.55 2325.45 1674.55 2325.45 2.75764e+08 0.25
Loop time of 7.18718 on 4 procs for 100000 steps with 1000 atoms

unfix 2

fix 3 all nvt temp 370000 370000 $(100.0*dt) #iso 1.0 1.0 $(1000.0*dt)
fix 3 all nvt temp 370000 370000 25

run 500000
Generated 0 of 1 mixed pair_coeff terms from geometric mixing rule
Step          Temp          Press          PotEng        Density         KinEng         TotEng           Lx             Ly             Lz            Xlo            Xhi            Ylo            Yhi            Zlo            Zhi           Volume           Dt            Time           CPU           T/CPU          S/CPU         CPULeft
66110000   383189.2       3151.2885     -32347223       1.9386548      1141072       -31206151       650.89777      650.89777      650.89777      1674.5511      2325.4489      1674.5511      2325.4489      1674.5511      2325.4489      2.757645e+08   0.25           17285000       0              0              0              0
Averages over the last 1251 of 2501 rows, steps 66360000 to 66610000:
Temp Press PotEng Density KinEng TotEng Lx Ly Lz Xlo Xhi Ylo Yhi Zlo Zhi Volume Dt
369916 2876.32 -3.22446e+07 1.93865 1.10155e+06 -3.1143e+07 650.898 650.898 650.898 1674.55 2325.45 1674.55 2325.45 1674.55 2325.45 2.75764e+08 0.25
Loop time of 36.4709 on 4 procs for 500000 steps with 1000 atoms

unfix 3

fix 4 all nvt temp 370000 300 100.0

run 100000
Generated 0 of 1 mixed pair_coeff terms from geometric mixing rule
Step          Temp          Press          PotEng        Density         KinEng         TotEng           Lx             Ly             Lz            Xlo            Xhi            Ylo            Yhi            Zlo            Zhi           Volume           Dt            Time           CPU           T/CPU          S/CPU         CPULeft
66610000   382719.55      2794.5921     -32314938       1.9386548      1139673.5     -31175265       650.89777      650.89777      650.89777      1674.5511      2325.4489      1674.5511      2325.4489      1674.5511      2325.4489      2.757645e+08   0.25           17410000       0              0              0              0
Averages over the last 251 of 501 rows, steps 66660000 to 66710000:
Temp Press PotEng Density KinEng TotEng Lx Ly Lz Xlo Xhi Ylo Yhi Zlo Zhi Volume Dt
93750.1 965.298 -3.29479e+07 1.93865 279172 -3.26687e+07 650.898 650.898 650.898 1674.55 2325.45 1674.55 2325.45 1674.55 2325.45 2.75764e+08 0.25
Loop time of 7.30926 on 4 procs for 100000 steps with 1000 atoms

unfix 4

fix 5 all npt temp 300 300 $(100.0*dt) iso 1.0 1.0 $(1000.0*dt)
fix 5 all npt temp 300 300 25 iso 1.0 1.0 $(1000.0*dt)
fix 5 all npt temp 300 300 25 iso 1.0 1.0 250

run 300000
Generated 0 of 1 mixed pair_coeff terms from geometric mixing rule
Step          Temp          Press          PotEng        Density         KinEng         TotEng           Lx             Ly             Lz            Xlo            Xhi            Ylo            Yhi            Zlo            Zhi           Volume           Dt            Time           CPU           T/CPU          S/CPU         CPULeft
66710000   2371.1397      312.67473     -33153772       1.9386548      7060.849      -33146711       650.89777      650.89777      650.89777      1674.5511      2325.4489      1674.5511      2325.4489      1674.5511      2325.4489      2.757645e+08   0.25           17435000       0              0              0              0
Averages over the last 751 of 1501 rows, steps 66860000 to 67010000:
Temp Press PotEng Density KinEng TotEng Lx Ly Lz Xlo Xhi Ylo Yhi Zlo Zhi Volume Dt
301.408 1.19003 -3.32032e+07 1.93461 897.543 -3.32023e+07 651.351 651.351 651.351 1674.32 2325.68 1674.32 2325.68 1674.32 2325.68 2.76341e+08 0.25
Loop time of 25.6212 on 4 procs for 300000 steps with 1000 atoms

# run_style
run_style verlet

# write restart
write_restart ./pgnpmf/5050/equpmf66.res
System init for write_restart ...
Generated 0 of 1 mixed pair_coeff terms from geometric mixing rule
