LAMMPS (23 Jun 2022 - Update 1)
# Read restart
read_restart ./pgnpmf/5050/equpmf51.res
Reading restart file ...
  restart file = 23 Jun 2022, LAMMPS = 23 Jun 2022
  restoring atom style atomic from restart
  orthogonal box = (1674.0777 1674.0777 1674.0777) to (2325.9223 2325.9223 2325.9223)
  restoring pair style table from restart
  1000 atoms
  read_restart CPU = 0.005 seconds

# Settings

pair_style table spline 9941

pair_coeff 1 1 ./pgnpmf/N20.txt DE_GNP 75.6
pair_coeff 2 2 ./pgnpmf/N100.txt DE_GNP 115.92
pair_coeff 1 2 ./pgnpmf/mixed_potential.txt DE_GNP 95.66

#Neigh_list Calc Frequency

neigh_modify delay 0 every 1 check yes

# Saving Frequency (50 frames)

variable ts_save equal 5000

# Dump
#dump_modify 1 first no sort id
dump 2 all cfg 50000 ./pgnpmf/5050/equilibration/trajectory/dumpgen.tens_*.cfg mass type xs ys zs fx fy fz
dump_modify 2 element N20 N100

# thermo_style
thermo_style custom step temp press pe density ke etotal lx ly lz xlo xhi ylo yhi zlo zhi vol dt time cpu tpcpu spcpu cpuremain

# run info
timestep 0.25
thermo 200

# fix

fix 1 all momentum 1000 linear 1 1 1 angular
variable T equal 300
fix 2 all nvt temp 300 370000 100.0

run 100000
Generated 0 of 1 mixed pair_coeff terms from geometric mixing rule
Unused restart file global fix info:
  fix style: npt, fix ID: 5
  update every 1 steps, delay 0 steps, check yes
Step          Temp          Press          PotEng        Density         KinEng         TotEng           Lx             Ly             Lz            Xlo            Xhi            Ylo            Yhi            Zlo            Zhi           Volume           Dt            Time           CPU           T/CPU          S/CPU         CPULeft
52010000   318.65797      6.6454724     -33094166       1.9302199      948.90902     -33093217       651.84451      651.84451      651.84451      1674.0777      2325.9223      1674.0777      2325.9223      1674.0777      2325.9223      2.7696956e+08  0.25           13760000       0              0              0              0
Averages over the last 251 of 501 rows, steps 52060000 to 52110000:
Temp Press PotEng Density KinEng TotEng Lx Ly Lz Xlo Xhi Ylo Yhi Zlo Zhi Volume Dt
276738 2112.69 -3.25851e+07 1.93022 824078 -3.1761e+07 651.845 651.845 651.845 1674.08 2325.92 1674.08 2325.92 1674.08 2325.92 2.7697e+08 0.25
Loop time of 7.4578 on 4 procs for 100000 steps with 1000 atoms

unfix 2

fix 3 all nvt temp 370000 370000 $(100.0*dt) #iso 1.0 1.0 $(1000.0*dt)
fix 3 all nvt temp 370000 370000 25

run 500000
Generated 0 of 1 mixed pair_coeff terms from geometric mixing rule
Step          Temp          Press          PotEng        Density         KinEng         TotEng           Lx             Ly             Lz            Xlo            Xhi            Ylo            Yhi            Zlo            Zhi           Volume           Dt            Time           CPU           T/CPU          S/CPU         CPULeft
52110000   379898.04      2941.7991     -32276275       1.9302199      1131271.5     -31145003       651.84451      651.84451      651.84451      1674.0777      2325.9223      1674.0777      2325.9223      1674.0777      2325.9223      2.7696956e+08  0.25           13785000       0              0              0              0
Averages over the last 1251 of 2501 rows, steps 52360000 to 52610000:
Temp Press PotEng Density KinEng TotEng Lx Ly Lz Xlo Xhi Ylo Yhi Zlo Zhi Volume Dt
369828 2696.67 -3.21459e+07 1.93022 1.10129e+06 -3.10447e+07 651.845 651.845 651.845 1674.08 2325.92 1674.08 2325.92 1674.08 2325.92 2.7697e+08 0.25
Loop time of 37.4639 on 4 procs for 500000 steps with 1000 atoms

unfix 3

fix 4 all nvt temp 370000 300 100.0

run 100000
Generated 0 of 1 mixed pair_coeff terms from geometric mixing rule
Step          Temp          Press          PotEng        Density         KinEng         TotEng           Lx             Ly             Lz            Xlo            Xhi            Ylo            Yhi            Zlo            Zhi           Volume           Dt            Time           CPU           T/CPU          S/CPU         CPULeft
52610000   361325.67      2749.2857     -32086868       1.9302199      1075966.1     -31010902       651.84451      651.84451      651.84451      1674.0777      2325.9223      1674.0777      2325.9223      1674.0777      2325.9223      2.7696956e+08  0.25           13910000       0              0              0              0
Averages over the last 251 of 501 rows, steps 52660000 to 52710000:
Temp Press PotEng Density KinEng TotEng Lx Ly Lz Xlo Xhi Ylo Yhi Zlo Zhi Volume Dt
93525.6 816.642 -3.27606e+07 1.93022 278503 -3.24821e+07 651.845 651.845 651.845 1674.08 2325.92 1674.08 2325.92 1674.08 2325.92 2.7697e+08 0.25
Loop time of 7.428 on 4 procs for 100000 steps with 1000 atoms

unfix 4

fix 5 all npt temp 300 300 $(100.0*dt) iso 1.0 1.0 $(1000.0*dt)
fix 5 all npt temp 300 300 25 iso 1.0 1.0 $(1000.0*dt)
fix 5 all npt temp 300 300 25 iso 1.0 1.0 250

run 300000
Generated 0 of 1 mixed pair_coeff terms from geometric mixing rule
Step          Temp          Press          PotEng        Density         KinEng         TotEng           Lx             Ly             Lz            Xlo            Xhi            Ylo            Yhi            Zlo            Zhi           Volume           Dt            Time           CPU           T/CPU          S/CPU         CPULeft
52710000   2378.8305      167.85794     -32919828       1.9302199      7083.751      -32912744       651.84451      651.84451      651.84451      1674.0777      2325.9223      1674.0777      2325.9223      1674.0777      2325.9223      2.7696956e+08  0.25           13935000       0              0              0              0
Averages over the last 751 of 1501 rows, steps 52860000 to 53010000:
Temp Press PotEng Density KinEng TotEng Lx Ly Lz Xlo Xhi Ylo Yhi Zlo Zhi Volume Dt
301.619 1.21423 -3.31508e+07 1.93153 898.17 -3.31499e+07 651.697 651.697 651.697 1674.15 2325.85 1674.15 2325.85 1674.15 2325.85 2.76782e+08 0.25
Loop time of 26.4943 on 4 procs for 300000 steps with 1000 atoms

# run_style
run_style verlet

# write restart
write_restart ./pgnpmf/5050/equpmf52.res
System init for write_restart ...
Generated 0 of 1 mixed pair_coeff terms from geometric mixing rule
