LAMMPS (23 Jun 2022 - Update 1)
# Read restart
read_restart ./pgnpmf/5050/equpmf31.res
Reading restart file ...
  restart file = 23 Jun 2022, LAMMPS = 23 Jun 2022
  restoring atom style atomic from restart
  orthogonal box = (1673.5137 1673.5137 1673.5137) to (2326.4863 2326.4863 2326.4863)
  restoring pair style table from restart
  1000 atoms
  read_restart CPU = 0.004 seconds

# Settings

pair_style table spline 9941

pair_coeff 1 1 ./pgnpmf/N20.txt DE_GNP 75.6
pair_coeff 2 2 ./pgnpmf/N100.txt DE_GNP 115.92
pair_coeff 1 2 ./pgnpmf/mixed_potential.txt DE_GNP 95.66

#Neigh_list Calc Frequency

neigh_modify delay 0 every 1 check yes

# Saving Frequency (50 frames)

variable ts_save equal 5000

# Dump
#dump_modify 1 first no sort id
dump 2 all cfg 50000 ./pgnpmf/5050/equilibration/trajectory/dumpgen.tens_*.cfg mass type xs ys zs fx fy fz
dump_modify 2 element N20 N100

# thermo_style
thermo_style custom step temp press pe density ke etotal lx ly lz xlo xhi ylo yhi zlo zhi vol dt time cpu tpcpu spcpu cpuremain

# run info
timestep 0.25
thermo 200

# fix

fix 1 all momentum 1000 linear 1 1 1 angular
variable T equal 300
fix 2 all nvt temp 300 370000 100.0

run 100000
Generated 0 of 1 mixed pair_coeff terms from geometric mixing rule
Unused restart file global fix info:
  fix style: npt, fix ID: 5
  update every 1 steps, delay 0 steps, check yes
Step          Temp          Press          PotEng        Density         KinEng         TotEng           Lx             Ly             Lz            Xlo            Xhi            Ylo            Yhi            Zlo            Zhi           Volume           Dt            Time           CPU           T/CPU          S/CPU         CPULeft
32010000   323.4638       4.6756758     -33186252       1.9202328      963.21997     -33185289       652.97264      652.97264      652.97264      1673.5137      2326.4863      1673.5137      2326.4863      1673.5137      2326.4863      2.7841008e+08  0.25           8760000        0              0              0              0
Averages over the last 251 of 501 rows, steps 32060000 to 32110000:
Temp Press PotEng Density KinEng TotEng Lx Ly Lz Xlo Xhi Ylo Yhi Zlo Zhi Volume Dt
276555 2107.17 -3.25658e+07 1.92023 823535 -3.17423e+07 652.973 652.973 652.973 1673.51 2326.49 1673.51 2326.49 1673.51 2326.49 2.7841e+08 0.25
Loop time of 6.4833 on 4 procs for 100000 steps with 1000 atoms

unfix 2

fix 3 all nvt temp 370000 370000 $(100.0*dt) #iso 1.0 1.0 $(1000.0*dt)
fix 3 all nvt temp 370000 370000 25

run 500000
Generated 0 of 1 mixed pair_coeff terms from geometric mixing rule
Step          Temp          Press          PotEng        Density         KinEng         TotEng           Lx             Ly             Lz            Xlo            Xhi            Ylo            Yhi            Zlo            Zhi           Volume           Dt            Time           CPU           T/CPU          S/CPU         CPULeft
32110000   356785.3       3102.9246     -32164880       1.9202328      1062445.7     -31102434       652.97264      652.97264      652.97264      1673.5137      2326.4863      1673.5137      2326.4863      1673.5137      2326.4863      2.7841008e+08  0.25           8785000        0              0              0              0
Averages over the last 1251 of 2501 rows, steps 32360000 to 32610000:
Temp Press PotEng Density KinEng TotEng Lx Ly Lz Xlo Xhi Ylo Yhi Zlo Zhi Volume Dt
370308 2738.29 -3.2183e+07 1.92023 1.10271e+06 -3.10803e+07 652.973 652.973 652.973 1673.51 2326.49 1673.51 2326.49 1673.51 2326.49 2.7841e+08 0.25
Loop time of 33.3506 on 4 procs for 500000 steps with 1000 atoms

unfix 3

fix 4 all nvt temp 370000 300 100.0

run 100000
Generated 0 of 1 mixed pair_coeff terms from geometric mixing rule
Step          Temp          Press          PotEng        Density         KinEng         TotEng           Lx             Ly             Lz            Xlo            Xhi            Ylo            Yhi            Zlo            Zhi           Volume           Dt            Time           CPU           T/CPU          S/CPU         CPULeft
32610000   359301.9       2759.7011     -32212594       1.9202328      1069939.7     -31142655       652.97264      652.97264      652.97264      1673.5137      2326.4863      1673.5137      2326.4863      1673.5137      2326.4863      2.7841008e+08  0.25           8910000        0              0              0              0
Averages over the last 251 of 501 rows, steps 32660000 to 32710000:
Temp Press PotEng Density KinEng TotEng Lx Ly Lz Xlo Xhi Ylo Yhi Zlo Zhi Volume Dt
93646.7 797.058 -3.29495e+07 1.92023 278864 -3.26706e+07 652.973 652.973 652.973 1673.51 2326.49 1673.51 2326.49 1673.51 2326.49 2.7841e+08 0.25
Loop time of 7.37872 on 4 procs for 100000 steps with 1000 atoms

unfix 4

fix 5 all npt temp 300 300 $(100.0*dt) iso 1.0 1.0 $(1000.0*dt)
fix 5 all npt temp 300 300 25 iso 1.0 1.0 $(1000.0*dt)
fix 5 all npt temp 300 300 25 iso 1.0 1.0 250

run 300000
Generated 0 of 1 mixed pair_coeff terms from geometric mixing rule
Step          Temp          Press          PotEng        Density         KinEng         TotEng           Lx             Ly             Lz            Xlo            Xhi            Ylo            Yhi            Zlo            Zhi           Volume           Dt            Time           CPU           T/CPU          S/CPU         CPULeft
32710000   2386.228       161.56175     -33183857       1.9202328      7105.7795     -33176751       652.97264      652.97264      652.97264      1673.5137      2326.4863      1673.5137      2326.4863      1673.5137      2326.4863      2.7841008e+08  0.25           8935000        0              0              0              0
Averages over the last 751 of 1501 rows, steps 32860000 to 33010000:
Temp Press PotEng Density KinEng TotEng Lx Ly Lz Xlo Xhi Ylo Yhi Zlo Zhi Volume Dt
301.699 0.889737 -3.3295e+07 1.92163 898.407 -3.32941e+07 652.814 652.814 652.814 1673.59 2326.41 1673.59 2326.41 1673.59 2326.41 2.78207e+08 0.25
Loop time of 26.0268 on 4 procs for 300000 steps with 1000 atoms

# run_style
run_style verlet

# write restart
write_restart ./pgnpmf/5050/equpmf32.res
System init for write_restart ...
Generated 0 of 1 mixed pair_coeff terms from geometric mixing rule
