LAMMPS (23 Jun 2022 - Update 1)
# Read restart
read_restart ./pgnpmf/5050/equpmf2.res
Reading restart file ...
  restart file = 23 Jun 2022, LAMMPS = 23 Jun 2022
  restoring atom style atomic from restart
  orthogonal box = (1182.4454 1182.4454 1182.4454) to (2817.5546 2817.5546 2817.5546)
  restoring pair style table from restart
  1000 atoms
  read_restart CPU = 0.003 seconds

# Settings

pair_style table spline 9941

pair_coeff 1 1 ./pgnpmf/N20.txt DE_GNP 75.6
pair_coeff 2 2 ./pgnpmf/N100.txt DE_GNP 115.92
pair_coeff 1 2 ./pgnpmf/mixed_potential.txt DE_GNP 95.66

#Neigh_list Calc Frequency

neigh_modify delay 0 every 1 check yes

# Saving Frequency (50 frames)

variable ts_save equal 5000

# Dump
#dump_modify 1 first no sort id
dump 2 all cfg 50000 ./pgnpmf/5050/equilibration/trajectory/dumpgen.tens_*.cfg mass type xs ys zs fx fy fz
dump_modify 2 element N20 N100

# thermo_style
thermo_style custom step temp press pe density ke etotal lx ly lz xlo xhi ylo yhi zlo zhi vol dt time cpu tpcpu spcpu cpuremain

# run info
timestep 0.25
thermo 200

# fix

fix 1 all momentum 1000 linear 1 1 1 angular
variable T equal 300
fix 2 all nvt temp 300 370000 100.0

run 100000
Generated 0 of 1 mixed pair_coeff terms from geometric mixing rule
Unused restart file global fix info:
  fix style: npt, fix ID: 5
  update every 1 steps, delay 0 steps, check yes
Step          Temp          Press          PotEng        Density         KinEng         TotEng           Lx             Ly             Lz            Xlo            Xhi            Ylo            Yhi            Zlo            Zhi           Volume           Dt            Time           CPU           T/CPU          S/CPU         CPULeft
3010000   316.02715      1.0086638     -1699535.1      0.12229213     941.07489     -1698594.1      1635.1092      1635.1092      1635.1092      1182.4454      2817.5546      1182.4454      2817.5546      1182.4454      2817.5546      4.3715989e+09  0.25           1510000        0              0              0              0
Averages over the last 251 of 501 rows, steps 3060000 to 3110000:
Temp Press PotEng Density KinEng TotEng Lx Ly Lz Xlo Xhi Ylo Yhi Zlo Zhi Volume Dt
277428 16.4486 -1.37419e+06 0.122292 826133 -548057 1635.11 1635.11 1635.11 1182.45 2817.55 1182.45 2817.55 1182.45 2817.55 4.3716e+09 0.25
Loop time of 2.43254 on 4 procs for 100000 steps with 1000 atoms

unfix 2

fix 3 all nvt temp 370000 370000 $(100.0*dt) #iso 1.0 1.0 $(1000.0*dt)
fix 3 all nvt temp 370000 370000 25

run 500000
Generated 0 of 1 mixed pair_coeff terms from geometric mixing rule
Step          Temp          Press          PotEng        Density         KinEng         TotEng           Lx             Ly             Lz            Xlo            Xhi            Ylo            Yhi            Zlo            Zhi           Volume           Dt            Time           CPU           T/CPU          S/CPU         CPULeft
3110000   373937.65      14.128891     -1002573.3      0.12229213     1113522.5      110949.22      1635.1092      1635.1092      1635.1092      1182.4454      2817.5546      1182.4454      2817.5546      1182.4454      2817.5546      4.3715989e+09  0.25           1535000        0              0              0              0
Averages over the last 1251 of 2501 rows, steps 3360000 to 3610000:
Temp Press PotEng Density KinEng TotEng Lx Ly Lz Xlo Xhi Ylo Yhi Zlo Zhi Volume Dt
369969 10.9211 -1.55252e+06 0.122292 1.1017e+06 -450814 1635.11 1635.11 1635.11 1182.45 2817.55 1182.45 2817.55 1182.45 2817.55 4.3716e+09 0.25
Loop time of 11.5761 on 4 procs for 500000 steps with 1000 atoms

unfix 3

fix 4 all nvt temp 370000 300 100.0

run 100000
Generated 0 of 1 mixed pair_coeff terms from geometric mixing rule
Step          Temp          Press          PotEng        Density         KinEng         TotEng           Lx             Ly             Lz            Xlo            Xhi            Ylo            Yhi            Zlo            Zhi           Volume           Dt            Time           CPU           T/CPU          S/CPU         CPULeft
3610000   365847.32      9.1093203     -1723107.5      0.12229213     1089430.9     -633676.62      1635.1092      1635.1092      1635.1092      1182.4454      2817.5546      1182.4454      2817.5546      1182.4454      2817.5546      4.3715989e+09  0.25           1660000        0              0              0              0
Averages over the last 251 of 501 rows, steps 3660000 to 3710000:
Temp Press PotEng Density KinEng TotEng Lx Ly Lz Xlo Xhi Ylo Yhi Zlo Zhi Volume Dt
93163.6 -0.722674 -1.86933e+06 0.122292 277425 -1.5919e+06 1635.11 1635.11 1635.11 1182.45 2817.55 1182.45 2817.55 1182.45 2817.55 4.3716e+09 0.25
Loop time of 2.33974 on 4 procs for 100000 steps with 1000 atoms

unfix 4

fix 5 all npt temp 300 300 $(100.0*dt) iso 1.0 1.0 $(1000.0*dt)
fix 5 all npt temp 300 300 25 iso 1.0 1.0 $(1000.0*dt)
fix 5 all npt temp 300 300 25 iso 1.0 1.0 250

run 300000
Generated 0 of 1 mixed pair_coeff terms from geometric mixing rule
Step          Temp          Press          PotEng        Density         KinEng         TotEng           Lx             Ly             Lz            Xlo            Xhi            Ylo            Yhi            Zlo            Zhi           Volume           Dt            Time           CPU           T/CPU          S/CPU         CPULeft
3710000   2058.0302     -6.8150243     -1935370.1      0.12229213     6128.4625     -1929241.6      1635.1092      1635.1092      1635.1092      1182.4454      2817.5546      1182.4454      2817.5546      1182.4454      2817.5546      4.3715989e+09  0.25           1685000        0              0              0              0
Averages over the last 751 of 1501 rows, steps 3860000 to 4010000:
Temp Press PotEng Density KinEng TotEng Lx Ly Lz Xlo Xhi Ylo Yhi Zlo Zhi Volume Dt
312.547 0.998763 -2.7431e+06 0.169921 930.71 -2.74217e+06 1465.91 1465.91 1465.91 1267.05 2732.95 1267.05 2732.95 1267.05 2732.95 3.15197e+09 0.25
Loop time of 10.8907 on 4 procs for 300000 steps with 1000 atoms

# run_style
run_style verlet

# write restart
write_restart ./pgnpmf/5050/equpmf3.res
System init for write_restart ...
Generated 0 of 1 mixed pair_coeff terms from geometric mixing rule
