LAMMPS (23 Jun 2022 - Update 1)
# Read restart
read_restart ./pgnpmf/5050/equpmf47.res
Reading restart file ...
  restart file = 23 Jun 2022, LAMMPS = 23 Jun 2022
  restoring atom style atomic from restart
  orthogonal box = (1674.299 1674.299 1674.299) to (2325.701 2325.701 2325.701)
  restoring pair style table from restart
  1000 atoms
  read_restart CPU = 0.006 seconds

# Settings

pair_style table spline 9941

pair_coeff 1 1 ./pgnpmf/N20.txt DE_GNP 75.6
pair_coeff 2 2 ./pgnpmf/N100.txt DE_GNP 115.92
pair_coeff 1 2 ./pgnpmf/mixed_potential.txt DE_GNP 95.66

#Neigh_list Calc Frequency

neigh_modify delay 0 every 1 check yes

# Saving Frequency (50 frames)

variable ts_save equal 5000

# Dump
#dump_modify 1 first no sort id
dump 2 all cfg 50000 ./pgnpmf/5050/equilibration/trajectory/dumpgen.tens_*.cfg mass type xs ys zs fx fy fz
dump_modify 2 element N20 N100

# thermo_style
thermo_style custom step temp press pe density ke etotal lx ly lz xlo xhi ylo yhi zlo zhi vol dt time cpu tpcpu spcpu cpuremain

# run info
timestep 0.25
thermo 200

# fix

fix 1 all momentum 1000 linear 1 1 1 angular
variable T equal 300
fix 2 all nvt temp 300 370000 100.0

run 100000
Generated 0 of 1 mixed pair_coeff terms from geometric mixing rule
Unused restart file global fix info:
  fix style: npt, fix ID: 5
  update every 1 steps, delay 0 steps, check yes
Step          Temp          Press          PotEng        Density         KinEng         TotEng           Lx             Ly             Lz            Xlo            Xhi            Ylo            Yhi            Zlo            Zhi           Volume           Dt            Time           CPU           T/CPU          S/CPU         CPULeft
48010000   302.35782      4.7292046     -33340104       1.9341556      900.36996     -33339204       651.40208      651.40208      651.40208      1674.299       2325.701       1674.299       2325.701       1674.299       2325.701       2.7640597e+08  0.25           12760000       0              0              0              0
Averages over the last 251 of 501 rows, steps 48060000 to 48110000:
Temp Press PotEng Density KinEng TotEng Lx Ly Lz Xlo Xhi Ylo Yhi Zlo Zhi Volume Dt
277402 2173.87 -3.26583e+07 1.93416 826055 -3.18322e+07 651.402 651.402 651.402 1674.3 2325.7 1674.3 2325.7 1674.3 2325.7 2.76406e+08 0.25
Loop time of 7.56112 on 4 procs for 100000 steps with 1000 atoms

unfix 2

fix 3 all nvt temp 370000 370000 $(100.0*dt) #iso 1.0 1.0 $(1000.0*dt)
fix 3 all nvt temp 370000 370000 25

run 500000
Generated 0 of 1 mixed pair_coeff terms from geometric mixing rule
Step          Temp          Press          PotEng        Density         KinEng         TotEng           Lx             Ly             Lz            Xlo            Xhi            Ylo            Yhi            Zlo            Zhi           Volume           Dt            Time           CPU           T/CPU          S/CPU         CPULeft
48110000   372143.41      3020.3976     -32251533       1.9341556      1108179.5     -31143353       651.40208      651.40208      651.40208      1674.299       2325.701       1674.299       2325.701       1674.299       2325.701       2.7640597e+08  0.25           12785000       0              0              0              0
Averages over the last 1251 of 2501 rows, steps 48360000 to 48610000:
Temp Press PotEng Density KinEng TotEng Lx Ly Lz Xlo Xhi Ylo Yhi Zlo Zhi Volume Dt
369870 2800.24 -3.21891e+07 1.93416 1.10141e+06 -3.10877e+07 651.402 651.402 651.402 1674.3 2325.7 1674.3 2325.7 1674.3 2325.7 2.76406e+08 0.25
Loop time of 38.0094 on 4 procs for 500000 steps with 1000 atoms

unfix 3

fix 4 all nvt temp 370000 300 100.0

run 100000
Generated 0 of 1 mixed pair_coeff terms from geometric mixing rule
Step          Temp          Press          PotEng        Density         KinEng         TotEng           Lx             Ly             Lz            Xlo            Xhi            Ylo            Yhi            Zlo            Zhi           Volume           Dt            Time           CPU           T/CPU          S/CPU         CPULeft
48610000   392586.36      2835.9682     -32179163       1.9341556      1169055.1     -31010107       651.40208      651.40208      651.40208      1674.299       2325.701       1674.299       2325.701       1674.299       2325.701       2.7640597e+08  0.25           12910000       0              0              0              0
Averages over the last 251 of 501 rows, steps 48660000 to 48710000:
Temp Press PotEng Density KinEng TotEng Lx Ly Lz Xlo Xhi Ylo Yhi Zlo Zhi Volume Dt
93658.8 863.321 -3.28826e+07 1.93416 278900 -3.26037e+07 651.402 651.402 651.402 1674.3 2325.7 1674.3 2325.7 1674.3 2325.7 2.76406e+08 0.25
Loop time of 7.53659 on 4 procs for 100000 steps with 1000 atoms

unfix 4

fix 5 all npt temp 300 300 $(100.0*dt) iso 1.0 1.0 $(1000.0*dt)
fix 5 all npt temp 300 300 25 iso 1.0 1.0 $(1000.0*dt)
fix 5 all npt temp 300 300 25 iso 1.0 1.0 250

run 300000
Generated 0 of 1 mixed pair_coeff terms from geometric mixing rule
Step          Temp          Press          PotEng        Density         KinEng         TotEng           Lx             Ly             Lz            Xlo            Xhi            Ylo            Yhi            Zlo            Zhi           Volume           Dt            Time           CPU           T/CPU          S/CPU         CPULeft
48710000   2377.9217      242.35254     -33065832       1.9341556      7081.0448     -33058751       651.40208      651.40208      651.40208      1674.299       2325.701       1674.299       2325.701       1674.299       2325.701       2.7640597e+08  0.25           12935000       0              0              0              0
Averages over the last 751 of 1501 rows, steps 48860000 to 49010000:
Temp Press PotEng Density KinEng TotEng Lx Ly Lz Xlo Xhi Ylo Yhi Zlo Zhi Volume Dt
301.261 0.735039 -3.31682e+07 1.93197 897.103 -3.31673e+07 651.647 651.647 651.647 1674.18 2325.82 1674.18 2325.82 1674.18 2325.82 2.76718e+08 0.25
Loop time of 26.7972 on 4 procs for 300000 steps with 1000 atoms

# run_style
run_style verlet

# write restart
write_restart ./pgnpmf/5050/equpmf48.res
System init for write_restart ...
Generated 0 of 1 mixed pair_coeff terms from geometric mixing rule
