LAMMPS (23 Jun 2022 - Update 1)
# Read restart
read_restart ./pgnpmf/5050/equpmf55.res
Reading restart file ...
  restart file = 23 Jun 2022, LAMMPS = 23 Jun 2022
  restoring atom style atomic from restart
  orthogonal box = (1674.2882 1674.2882 1674.2882) to (2325.7118 2325.7118 2325.7118)
  restoring pair style table from restart
  1000 atoms
  read_restart CPU = 0.004 seconds

# Settings

pair_style table spline 9941

pair_coeff 1 1 ./pgnpmf/N20.txt DE_GNP 75.6
pair_coeff 2 2 ./pgnpmf/N100.txt DE_GNP 115.92
pair_coeff 1 2 ./pgnpmf/mixed_potential.txt DE_GNP 95.66

#Neigh_list Calc Frequency

neigh_modify delay 0 every 1 check yes

# Saving Frequency (50 frames)

variable ts_save equal 5000

# Dump
#dump_modify 1 first no sort id
dump 2 all cfg 50000 ./pgnpmf/5050/equilibration/trajectory/dumpgen.tens_*.cfg mass type xs ys zs fx fy fz
dump_modify 2 element N20 N100

# thermo_style
thermo_style custom step temp press pe density ke etotal lx ly lz xlo xhi ylo yhi zlo zhi vol dt time cpu tpcpu spcpu cpuremain

# run info
timestep 0.25
thermo 200

# fix

fix 1 all momentum 1000 linear 1 1 1 angular
variable T equal 300
fix 2 all nvt temp 300 370000 100.0

run 100000
Generated 0 of 1 mixed pair_coeff terms from geometric mixing rule
Unused restart file global fix info:
  fix style: npt, fix ID: 5
  update every 1 steps, delay 0 steps, check yes
Step          Temp          Press          PotEng        Density         KinEng         TotEng           Lx             Ly             Lz            Xlo            Xhi            Ylo            Yhi            Zlo            Zhi           Volume           Dt            Time           CPU           T/CPU          S/CPU         CPULeft
56010000   304.48156      5.1810754     -33098136       1.933964       906.6941      -33097229       651.4236       651.4236       651.4236       1674.2882      2325.7118      1674.2882      2325.7118      1674.2882      2325.7118      2.7643337e+08  0.25           14760000       0              0              0              0
Averages over the last 251 of 501 rows, steps 56060000 to 56110000:
Temp Press PotEng Density KinEng TotEng Lx Ly Lz Xlo Xhi Ylo Yhi Zlo Zhi Volume Dt
277066 2181.55 -3.26678e+07 1.93396 825056 -3.18428e+07 651.424 651.424 651.424 1674.29 2325.71 1674.29 2325.71 1674.29 2325.71 2.76433e+08 0.25
Loop time of 7.44094 on 4 procs for 100000 steps with 1000 atoms

unfix 2

fix 3 all nvt temp 370000 370000 $(100.0*dt) #iso 1.0 1.0 $(1000.0*dt)
fix 3 all nvt temp 370000 370000 25

run 500000
Generated 0 of 1 mixed pair_coeff terms from geometric mixing rule
Step          Temp          Press          PotEng        Density         KinEng         TotEng           Lx             Ly             Lz            Xlo            Xhi            Ylo            Yhi            Zlo            Zhi           Volume           Dt            Time           CPU           T/CPU          S/CPU         CPULeft
56110000   372742.79      3139.2407     -32436414       1.933964       1109964.4     -31326449       651.4236       651.4236       651.4236       1674.2882      2325.7118      1674.2882      2325.7118      1674.2882      2325.7118      2.7643337e+08  0.25           14785000       0              0              0              0
Averages over the last 1251 of 2501 rows, steps 56360000 to 56610000:
Temp Press PotEng Density KinEng TotEng Lx Ly Lz Xlo Xhi Ylo Yhi Zlo Zhi Volume Dt
370102 2819.23 -3.22054e+07 1.93396 1.1021e+06 -3.11033e+07 651.424 651.424 651.424 1674.29 2325.71 1674.29 2325.71 1674.29 2325.71 2.76433e+08 0.25
Loop time of 37.939 on 4 procs for 500000 steps with 1000 atoms

unfix 3

fix 4 all nvt temp 370000 300 100.0

run 100000
Generated 0 of 1 mixed pair_coeff terms from geometric mixing rule
Step          Temp          Press          PotEng        Density         KinEng         TotEng           Lx             Ly             Lz            Xlo            Xhi            Ylo            Yhi            Zlo            Zhi           Volume           Dt            Time           CPU           T/CPU          S/CPU         CPULeft
56610000   377573.32      2821.2235     -32210201       1.933964       1124348.9     -31085852       651.4236       651.4236       651.4236       1674.2882      2325.7118      1674.2882      2325.7118      1674.2882      2325.7118      2.7643337e+08  0.25           14910000       0              0              0              0
Averages over the last 251 of 501 rows, steps 56660000 to 56710000:
Temp Press PotEng Density KinEng TotEng Lx Ly Lz Xlo Xhi Ylo Yhi Zlo Zhi Volume Dt
93498.9 902.816 -3.28274e+07 1.93396 278424 -3.2549e+07 651.424 651.424 651.424 1674.29 2325.71 1674.29 2325.71 1674.29 2325.71 2.76433e+08 0.25
Loop time of 7.34177 on 4 procs for 100000 steps with 1000 atoms

unfix 4

fix 5 all npt temp 300 300 $(100.0*dt) iso 1.0 1.0 $(1000.0*dt)
fix 5 all npt temp 300 300 25 iso 1.0 1.0 $(1000.0*dt)
fix 5 all npt temp 300 300 25 iso 1.0 1.0 250

run 300000
Generated 0 of 1 mixed pair_coeff terms from geometric mixing rule
Step          Temp          Press          PotEng        Density         KinEng         TotEng           Lx             Ly             Lz            Xlo            Xhi            Ylo            Yhi            Zlo            Zhi           Volume           Dt            Time           CPU           T/CPU          S/CPU         CPULeft
56710000   2387.8597      251.66868     -33079874       1.933964       7110.6383     -33072763       651.4236       651.4236       651.4236       1674.2882      2325.7118      1674.2882      2325.7118      1674.2882      2325.7118      2.7643337e+08  0.25           14935000       0              0              0              0
Averages over the last 751 of 1501 rows, steps 56860000 to 57010000:
Temp Press PotEng Density KinEng TotEng Lx Ly Lz Xlo Xhi Ylo Yhi Zlo Zhi Volume Dt
301.686 0.677216 -3.31832e+07 1.93186 898.371 -3.31823e+07 651.66 651.66 651.66 1674.17 2325.83 1674.17 2325.83 1674.17 2325.83 2.76734e+08 0.25
Loop time of 25.6185 on 4 procs for 300000 steps with 1000 atoms

# run_style
run_style verlet

# write restart
write_restart ./pgnpmf/5050/equpmf56.res
System init for write_restart ...
Generated 0 of 1 mixed pair_coeff terms from geometric mixing rule
