LAMMPS (23 Jun 2022 - Update 1)
# Read restart
read_restart ./pgnpmf/5050/equpmf59.res
Reading restart file ...
  restart file = 23 Jun 2022, LAMMPS = 23 Jun 2022
  restoring atom style atomic from restart
  orthogonal box = (1674.5468 1674.5468 1674.5468) to (2325.4532 2325.4532 2325.4532)
  restoring pair style table from restart
  1000 atoms
  read_restart CPU = 0.004 seconds

# Settings

pair_style table spline 9941

pair_coeff 1 1 ./pgnpmf/N20.txt DE_GNP 75.6
pair_coeff 2 2 ./pgnpmf/N100.txt DE_GNP 115.92
pair_coeff 1 2 ./pgnpmf/mixed_potential.txt DE_GNP 95.66

#Neigh_list Calc Frequency

neigh_modify delay 0 every 1 check yes

# Saving Frequency (50 frames)

variable ts_save equal 5000

# Dump
#dump_modify 1 first no sort id
dump 2 all cfg 50000 ./pgnpmf/5050/equilibration/trajectory/dumpgen.tens_*.cfg mass type xs ys zs fx fy fz
dump_modify 2 element N20 N100

# thermo_style
thermo_style custom step temp press pe density ke etotal lx ly lz xlo xhi ylo yhi zlo zhi vol dt time cpu tpcpu spcpu cpuremain

# run info
timestep 0.25
thermo 200

# fix

fix 1 all momentum 1000 linear 1 1 1 angular
variable T equal 300
fix 2 all nvt temp 300 370000 100.0

run 100000
Generated 0 of 1 mixed pair_coeff terms from geometric mixing rule
Unused restart file global fix info:
  fix style: npt, fix ID: 5
  update every 1 steps, delay 0 steps, check yes
Step          Temp          Press          PotEng        Density         KinEng         TotEng           Lx             Ly             Lz            Xlo            Xhi            Ylo            Yhi            Zlo            Zhi           Volume           Dt            Time           CPU           T/CPU          S/CPU         CPULeft
60010000   309.97974      5.1212675     -33406683       1.9385785      923.06675     -33405760       650.90631      650.90631      650.90631      1674.5468      2325.4532      1674.5468      2325.4532      1674.5468      2325.4532      2.7577535e+08  0.25           15760000       0              0              0              0
Averages over the last 251 of 501 rows, steps 60060000 to 60110000:
Temp Press PotEng Density KinEng TotEng Lx Ly Lz Xlo Xhi Ylo Yhi Zlo Zhi Volume Dt
277453 2402.58 -3.26355e+07 1.93858 826208 -3.18093e+07 650.906 650.906 650.906 1674.55 2325.45 1674.55 2325.45 1674.55 2325.45 2.75775e+08 0.25
Loop time of 6.31729 on 4 procs for 100000 steps with 1000 atoms

unfix 2

fix 3 all nvt temp 370000 370000 $(100.0*dt) #iso 1.0 1.0 $(1000.0*dt)
fix 3 all nvt temp 370000 370000 25

run 500000
Generated 0 of 1 mixed pair_coeff terms from geometric mixing rule
Step          Temp          Press          PotEng        Density         KinEng         TotEng           Lx             Ly             Lz            Xlo            Xhi            Ylo            Yhi            Zlo            Zhi           Volume           Dt            Time           CPU           T/CPU          S/CPU         CPULeft
60110000   367344.73      3212.8989     -32319833       1.9385785      1093889.9     -31225943       650.90631      650.90631      650.90631      1674.5468      2325.4532      1674.5468      2325.4532      1674.5468      2325.4532      2.7577535e+08  0.25           15785000       0              0              0              0
Averages over the last 1251 of 2501 rows, steps 60360000 to 60610000:
Temp Press PotEng Density KinEng TotEng Lx Ly Lz Xlo Xhi Ylo Yhi Zlo Zhi Volume Dt
370054 2800.08 -3.23196e+07 1.93858 1.10196e+06 -3.12176e+07 650.906 650.906 650.906 1674.55 2325.45 1674.55 2325.45 1674.55 2325.45 2.75775e+08 0.25
Loop time of 31.3725 on 4 procs for 500000 steps with 1000 atoms

unfix 3

fix 4 all nvt temp 370000 300 100.0

run 100000
Generated 0 of 1 mixed pair_coeff terms from geometric mixing rule
Step          Temp          Press          PotEng        Density         KinEng         TotEng           Lx             Ly             Lz            Xlo            Xhi            Ylo            Yhi            Zlo            Zhi           Volume           Dt            Time           CPU           T/CPU          S/CPU         CPULeft
60610000   371496.92      2770.2974     -32314987       1.9385785      1106254.4     -31208733       650.90631      650.90631      650.90631      1674.5468      2325.4532      1674.5468      2325.4532      1674.5468      2325.4532      2.7577535e+08  0.25           15910000       0              0              0              0
Averages over the last 251 of 501 rows, steps 60660000 to 60710000:
Temp Press PotEng Density KinEng TotEng Lx Ly Lz Xlo Xhi Ylo Yhi Zlo Zhi Volume Dt
93535 914.211 -3.29979e+07 1.93858 278531 -3.27193e+07 650.906 650.906 650.906 1674.55 2325.45 1674.55 2325.45 1674.55 2325.45 2.75775e+08 0.25
Loop time of 6.40112 on 4 procs for 100000 steps with 1000 atoms

unfix 4

fix 5 all npt temp 300 300 $(100.0*dt) iso 1.0 1.0 $(1000.0*dt)
fix 5 all npt temp 300 300 25 iso 1.0 1.0 $(1000.0*dt)
fix 5 all npt temp 300 300 25 iso 1.0 1.0 250

run 300000
Generated 0 of 1 mixed pair_coeff terms from geometric mixing rule
Step          Temp          Press          PotEng        Density         KinEng         TotEng           Lx             Ly             Lz            Xlo            Xhi            Ylo            Yhi            Zlo            Zhi           Volume           Dt            Time           CPU           T/CPU          S/CPU         CPULeft
60710000   2361.8416      242.16986     -33250261       1.9385785      7033.161      -33243228       650.90631      650.90631      650.90631      1674.5468      2325.4532      1674.5468      2325.4532      1674.5468      2325.4532      2.7577535e+08  0.25           15935000       0              0              0              0
Averages over the last 751 of 1501 rows, steps 60860000 to 61010000:
Temp Press PotEng Density KinEng TotEng Lx Ly Lz Xlo Xhi Ylo Yhi Zlo Zhi Volume Dt
301.51 0.763121 -3.32234e+07 1.93618 897.844 -3.32225e+07 651.175 651.175 651.175 1674.41 2325.59 1674.41 2325.59 1674.41 2325.59 2.76117e+08 0.25
Loop time of 22.3818 on 4 procs for 300000 steps with 1000 atoms

# run_style
run_style verlet

# write restart
write_restart ./pgnpmf/5050/equpmf60.res
System init for write_restart ...
Generated 0 of 1 mixed pair_coeff terms from geometric mixing rule
