LAMMPS (23 Jun 2022 - Update 1)
# Read restart
read_restart ./pgnpmf/5050/equpmf35.res
Reading restart file ...
  restart file = 23 Jun 2022, LAMMPS = 23 Jun 2022
  restoring atom style atomic from restart
  orthogonal box = (1673.8383 1673.8383 1673.8383) to (2326.1617 2326.1617 2326.1617)
  restoring pair style table from restart
  1000 atoms
  read_restart CPU = 0.003 seconds

# Settings

pair_style table spline 9941

pair_coeff 1 1 ./pgnpmf/N20.txt DE_GNP 75.6
pair_coeff 2 2 ./pgnpmf/N100.txt DE_GNP 115.92
pair_coeff 1 2 ./pgnpmf/mixed_potential.txt DE_GNP 95.66

#Neigh_list Calc Frequency

neigh_modify delay 0 every 1 check yes

# Saving Frequency (50 frames)

variable ts_save equal 5000

# Dump
#dump_modify 1 first no sort id
dump 2 all cfg 50000 ./pgnpmf/5050/equilibration/trajectory/dumpgen.tens_*.cfg mass type xs ys zs fx fy fz
dump_modify 2 element N20 N100

# thermo_style
thermo_style custom step temp press pe density ke etotal lx ly lz xlo xhi ylo yhi zlo zhi vol dt time cpu tpcpu spcpu cpuremain

# run info
timestep 0.25
thermo 200

# fix

fix 1 all momentum 1000 linear 1 1 1 angular
variable T equal 300
fix 2 all nvt temp 300 370000 100.0

run 100000
Generated 0 of 1 mixed pair_coeff terms from geometric mixing rule
Unused restart file global fix info:
  fix style: npt, fix ID: 5
  update every 1 steps, delay 0 steps, check yes
Step          Temp          Press          PotEng        Density         KinEng         TotEng           Lx             Ly             Lz            Xlo            Xhi            Ylo            Yhi            Zlo            Zhi           Volume           Dt            Time           CPU           T/CPU          S/CPU         CPULeft
36010000   295.96721     -1.0983002     -33180600       1.9259716      881.3398      -33179718       652.32344      652.32344      652.32344      1673.8383      2326.1617      1673.8383      2326.1617      1673.8383      2326.1617      2.775805e+08   0.25           9760000        0              0              0              0
Averages over the last 251 of 501 rows, steps 36060000 to 36110000:
Temp Press PotEng Density KinEng TotEng Lx Ly Lz Xlo Xhi Ylo Yhi Zlo Zhi Volume Dt
277429 2143.96 -3.25021e+07 1.92597 826135 -3.1676e+07 652.323 652.323 652.323 1673.84 2326.16 1673.84 2326.16 1673.84 2326.16 2.7758e+08 0.25
Loop time of 7.6114 on 4 procs for 100000 steps with 1000 atoms

unfix 2

fix 3 all nvt temp 370000 370000 $(100.0*dt) #iso 1.0 1.0 $(1000.0*dt)
fix 3 all nvt temp 370000 370000 25

run 500000
Generated 0 of 1 mixed pair_coeff terms from geometric mixing rule
Step          Temp          Press          PotEng        Density         KinEng         TotEng           Lx             Ly             Lz            Xlo            Xhi            Ylo            Yhi            Zlo            Zhi           Volume           Dt            Time           CPU           T/CPU          S/CPU         CPULeft
36110000   374064.72      3039.4617     -32185619       1.9259716      1113900.8     -31071718       652.32344      652.32344      652.32344      1673.8383      2326.1617      1673.8383      2326.1617      1673.8383      2326.1617      2.775805e+08   0.25           9785000        0              0              0              0
Averages over the last 1251 of 2501 rows, steps 36360000 to 36610000:
Temp Press PotEng Density KinEng TotEng Lx Ly Lz Xlo Xhi Ylo Yhi Zlo Zhi Volume Dt
370080 2719.25 -3.21675e+07 1.92597 1.10204e+06 -3.10655e+07 652.323 652.323 652.323 1673.84 2326.16 1673.84 2326.16 1673.84 2326.16 2.7758e+08 0.25
Loop time of 37.7914 on 4 procs for 500000 steps with 1000 atoms

unfix 3

fix 4 all nvt temp 370000 300 100.0

run 100000
Generated 0 of 1 mixed pair_coeff terms from geometric mixing rule
Step          Temp          Press          PotEng        Density         KinEng         TotEng           Lx             Ly             Lz            Xlo            Xhi            Ylo            Yhi            Zlo            Zhi           Volume           Dt            Time           CPU           T/CPU          S/CPU         CPULeft
36610000   362246.28      2740.0259     -32165337       1.9259716      1078707.6     -31086630       652.32344      652.32344      652.32344      1673.8383      2326.1617      1673.8383      2326.1617      1673.8383      2326.1617      2.775805e+08   0.25           9910000        0              0              0              0
Averages over the last 251 of 501 rows, steps 36660000 to 36710000:
Temp Press PotEng Density KinEng TotEng Lx Ly Lz Xlo Xhi Ylo Yhi Zlo Zhi Volume Dt
93784.9 827.54 -3.28347e+07 1.92597 279275 -3.25554e+07 652.323 652.323 652.323 1673.84 2326.16 1673.84 2326.16 1673.84 2326.16 2.7758e+08 0.25
Loop time of 7.4543 on 4 procs for 100000 steps with 1000 atoms

unfix 4

fix 5 all npt temp 300 300 $(100.0*dt) iso 1.0 1.0 $(1000.0*dt)
fix 5 all npt temp 300 300 25 iso 1.0 1.0 $(1000.0*dt)
fix 5 all npt temp 300 300 25 iso 1.0 1.0 250

run 300000
Generated 0 of 1 mixed pair_coeff terms from geometric mixing rule
Step          Temp          Press          PotEng        Density         KinEng         TotEng           Lx             Ly             Lz            Xlo            Xhi            Ylo            Yhi            Zlo            Zhi           Volume           Dt            Time           CPU           T/CPU          S/CPU         CPULeft
36710000   2368.941       177.14067     -33041328       1.9259716      7054.3019     -33034273       652.32344      652.32344      652.32344      1673.8383      2326.1617      1673.8383      2326.1617      1673.8383      2326.1617      2.775805e+08   0.25           9935000        0              0              0              0
Averages over the last 751 of 1501 rows, steps 36860000 to 37010000:
Temp Press PotEng Density KinEng TotEng Lx Ly Lz Xlo Xhi Ylo Yhi Zlo Zhi Volume Dt
301.912 1.10681 -3.31709e+07 1.92687 899.042 -3.317e+07 652.222 652.222 652.222 1673.89 2326.11 1673.89 2326.11 1673.89 2326.11 2.77451e+08 0.25
Loop time of 26.2664 on 4 procs for 300000 steps with 1000 atoms

# run_style
run_style verlet

# write restart
write_restart ./pgnpmf/5050/equpmf36.res
System init for write_restart ...
Generated 0 of 1 mixed pair_coeff terms from geometric mixing rule
