LAMMPS (23 Jun 2022 - Update 1)
# Read restart
read_restart ./pgnpmf/5050/equpmf23.res
Reading restart file ...
  restart file = 23 Jun 2022, LAMMPS = 23 Jun 2022
  restoring atom style atomic from restart
  orthogonal box = (1629.4423 1629.4423 1629.4423) to (2370.5577 2370.5577 2370.5577)
  restoring pair style table from restart
  1000 atoms
  read_restart CPU = 0.003 seconds

# Settings

pair_style table spline 9941

pair_coeff 1 1 ./pgnpmf/N20.txt DE_GNP 75.6
pair_coeff 2 2 ./pgnpmf/N100.txt DE_GNP 115.92
pair_coeff 1 2 ./pgnpmf/mixed_potential.txt DE_GNP 95.66

#Neigh_list Calc Frequency

neigh_modify delay 0 every 1 check yes

# Saving Frequency (50 frames)

variable ts_save equal 5000

# Dump
#dump_modify 1 first no sort id
dump 2 all cfg 50000 ./pgnpmf/5050/equilibration/trajectory/dumpgen.tens_*.cfg mass type xs ys zs fx fy fz
dump_modify 2 element N20 N100

# thermo_style
thermo_style custom step temp press pe density ke etotal lx ly lz xlo xhi ylo yhi zlo zhi vol dt time cpu tpcpu spcpu cpuremain

# run info
timestep 0.25
thermo 200

# fix

fix 1 all momentum 1000 linear 1 1 1 angular
variable T equal 300
fix 2 all nvt temp 300 370000 100.0

run 100000
Generated 0 of 1 mixed pair_coeff terms from geometric mixing rule
Unused restart file global fix info:
  fix style: npt, fix ID: 5
  update every 1 steps, delay 0 steps, check yes
Step          Temp          Press          PotEng        Density         KinEng         TotEng           Lx             Ly             Lz            Xlo            Xhi            Ylo            Yhi            Zlo            Zhi           Volume           Dt            Time           CPU           T/CPU          S/CPU         CPULeft
24010000   310.60164      0.11525689    -28522012       1.3133526      924.91865     -28521087       741.1154       741.1154       741.1154       1629.4423      2370.5577      1629.4423      2370.5577      1629.4423      2370.5577      4.0705914e+08  0.25           6760000        0              0              0              0
Averages over the last 251 of 501 rows, steps 24060000 to 24110000:
Temp Press PotEng Density KinEng TotEng Lx Ly Lz Xlo Xhi Ylo Yhi Zlo Zhi Volume Dt
277619 340.595 -2.87012e+07 1.31335 826702 -2.78745e+07 741.115 741.115 741.115 1629.44 2370.56 1629.44 2370.56 1629.44 2370.56 4.07059e+08 0.25
Loop time of 5.65843 on 4 procs for 100000 steps with 1000 atoms

unfix 2

fix 3 all nvt temp 370000 370000 $(100.0*dt) #iso 1.0 1.0 $(1000.0*dt)
fix 3 all nvt temp 370000 370000 25

run 500000
Generated 0 of 1 mixed pair_coeff terms from geometric mixing rule
Step          Temp          Press          PotEng        Density         KinEng         TotEng           Lx             Ly             Lz            Xlo            Xhi            Ylo            Yhi            Zlo            Zhi           Volume           Dt            Time           CPU           T/CPU          S/CPU         CPULeft
24110000   378224.32      618.6218      -28531300       1.3133526      1126287.4     -27405013       741.1154       741.1154       741.1154       1629.4423      2370.5577      1629.4423      2370.5577      1629.4423      2370.5577      4.0705914e+08  0.25           6785000        0              0              0              0
Averages over the last 1251 of 2501 rows, steps 24360000 to 24610000:
Temp Press PotEng Density KinEng TotEng Lx Ly Lz Xlo Xhi Ylo Yhi Zlo Zhi Volume Dt
370168 39.3718 -2.74406e+07 1.31335 1.1023e+06 -2.63383e+07 741.115 741.115 741.115 1629.44 2370.56 1629.44 2370.56 1629.44 2370.56 4.07059e+08 0.25
Loop time of 27.683 on 4 procs for 500000 steps with 1000 atoms

unfix 3

fix 4 all nvt temp 370000 300 100.0

run 100000
Generated 0 of 1 mixed pair_coeff terms from geometric mixing rule
Step          Temp          Press          PotEng        Density         KinEng         TotEng           Lx             Ly             Lz            Xlo            Xhi            Ylo            Yhi            Zlo            Zhi           Volume           Dt            Time           CPU           T/CPU          S/CPU         CPULeft
24610000   373919.31      70.650522     -27408849       1.3133526      1113467.9     -26295381       741.1154       741.1154       741.1154       1629.4423      2370.5577      1629.4423      2370.5577      1629.4423      2370.5577      4.0705914e+08  0.25           6910000        0              0              0              0
Averages over the last 251 of 501 rows, steps 24660000 to 24710000:
Temp Press PotEng Density KinEng TotEng Lx Ly Lz Xlo Xhi Ylo Yhi Zlo Zhi Volume Dt
93753.9 -673.607 -2.79121e+07 1.31335 279183 -2.76329e+07 741.115 741.115 741.115 1629.44 2370.56 1629.44 2370.56 1629.44 2370.56 4.07059e+08 0.25
Loop time of 5.36899 on 4 procs for 100000 steps with 1000 atoms

unfix 4

fix 5 all npt temp 300 300 $(100.0*dt) iso 1.0 1.0 $(1000.0*dt)
fix 5 all npt temp 300 300 25 iso 1.0 1.0 $(1000.0*dt)
fix 5 all npt temp 300 300 25 iso 1.0 1.0 250

run 300000
Generated 0 of 1 mixed pair_coeff terms from geometric mixing rule
Step          Temp          Press          PotEng        Density         KinEng         TotEng           Lx             Ly             Lz            Xlo            Xhi            Ylo            Yhi            Zlo            Zhi           Volume           Dt            Time           CPU           T/CPU          S/CPU         CPULeft
24710000   2340.242      -969.00396     -28200947       1.3133526      6968.841      -28193978       741.1154       741.1154       741.1154       1629.4423      2370.5577      1629.4423      2370.5577      1629.4423      2370.5577      4.0705914e+08  0.25           6935000        0              0              0              0
Averages over the last 751 of 1501 rows, steps 24860000 to 25010000:
Temp Press PotEng Density KinEng TotEng Lx Ly Lz Xlo Xhi Ylo Yhi Zlo Zhi Volume Dt
313.029 0.943639 -2.91574e+07 1.40237 932.148 -2.91565e+07 725.092 725.092 725.092 1637.45 2362.55 1637.45 2362.55 1637.45 2362.55 3.81224e+08 0.25
Loop time of 20.2458 on 4 procs for 300000 steps with 1000 atoms

# run_style
run_style verlet

# write restart
write_restart ./pgnpmf/5050/equpmf24.res
System init for write_restart ...
Generated 0 of 1 mixed pair_coeff terms from geometric mixing rule
