LAMMPS (23 Jun 2022 - Update 1)
# Read restart
read_restart ./pgnpmf/5050/equpmf41.res
Reading restart file ...
  restart file = 23 Jun 2022, LAMMPS = 23 Jun 2022
  restoring atom style atomic from restart
  orthogonal box = (1673.9404 1673.9404 1673.9404) to (2326.0596 2326.0596 2326.0596)
  restoring pair style table from restart
  1000 atoms
  read_restart CPU = 0.005 seconds

# Settings

pair_style table spline 9941

pair_coeff 1 1 ./pgnpmf/N20.txt DE_GNP 75.6
pair_coeff 2 2 ./pgnpmf/N100.txt DE_GNP 115.92
pair_coeff 1 2 ./pgnpmf/mixed_potential.txt DE_GNP 95.66

#Neigh_list Calc Frequency

neigh_modify delay 0 every 1 check yes

# Saving Frequency (50 frames)

variable ts_save equal 5000

# Dump
#dump_modify 1 first no sort id
dump 2 all cfg 50000 ./pgnpmf/5050/equilibration/trajectory/dumpgen.tens_*.cfg mass type xs ys zs fx fy fz
dump_modify 2 element N20 N100

# thermo_style
thermo_style custom step temp press pe density ke etotal lx ly lz xlo xhi ylo yhi zlo zhi vol dt time cpu tpcpu spcpu cpuremain

# run info
timestep 0.25
thermo 200

# fix

fix 1 all momentum 1000 linear 1 1 1 angular
variable T equal 300
fix 2 all nvt temp 300 370000 100.0

run 100000
Generated 0 of 1 mixed pair_coeff terms from geometric mixing rule
Unused restart file global fix info:
  fix style: npt, fix ID: 5
  update every 1 steps, delay 0 steps, check yes
Step          Temp          Press          PotEng        Density         KinEng         TotEng           Lx             Ly             Lz            Xlo            Xhi            Ylo            Yhi            Zlo            Zhi           Volume           Dt            Time           CPU           T/CPU          S/CPU         CPULeft
42010000   298.5946       10.05785      -33308755       1.9277823      889.16374     -33307866       652.11914      652.11914      652.11914      1673.9404      2326.0596      1673.9404      2326.0596      1673.9404      2326.0596      2.7731977e+08  0.25           11260000       0              0              0              0
Averages over the last 251 of 501 rows, steps 42060000 to 42110000:
Temp Press PotEng Density KinEng TotEng Lx Ly Lz Xlo Xhi Ylo Yhi Zlo Zhi Volume Dt
277355 2208.45 -3.25423e+07 1.92778 825914 -3.17164e+07 652.119 652.119 652.119 1673.94 2326.06 1673.94 2326.06 1673.94 2326.06 2.7732e+08 0.25
Loop time of 7.64967 on 4 procs for 100000 steps with 1000 atoms

unfix 2

fix 3 all nvt temp 370000 370000 $(100.0*dt) #iso 1.0 1.0 $(1000.0*dt)
fix 3 all nvt temp 370000 370000 25

run 500000
Generated 0 of 1 mixed pair_coeff terms from geometric mixing rule
Step          Temp          Press          PotEng        Density         KinEng         TotEng           Lx             Ly             Lz            Xlo            Xhi            Ylo            Yhi            Zlo            Zhi           Volume           Dt            Time           CPU           T/CPU          S/CPU         CPULeft
42110000   358267.22      3120.4453     -32245021       1.9277823      1066858.6     -31178162       652.11914      652.11914      652.11914      1673.9404      2326.0596      1673.9404      2326.0596      1673.9404      2326.0596      2.7731977e+08  0.25           11285000       0              0              0              0
Averages over the last 1251 of 2501 rows, steps 42360000 to 42610000:
Temp Press PotEng Density KinEng TotEng Lx Ly Lz Xlo Xhi Ylo Yhi Zlo Zhi Volume Dt
369874 2790.93 -3.2166e+07 1.92778 1.10142e+06 -3.10645e+07 652.119 652.119 652.119 1673.94 2326.06 1673.94 2326.06 1673.94 2326.06 2.7732e+08 0.25
Loop time of 38.0944 on 4 procs for 500000 steps with 1000 atoms

unfix 3

fix 4 all nvt temp 370000 300 100.0

run 100000
Generated 0 of 1 mixed pair_coeff terms from geometric mixing rule
Step          Temp          Press          PotEng        Density         KinEng         TotEng           Lx             Ly             Lz            Xlo            Xhi            Ylo            Yhi            Zlo            Zhi           Volume           Dt            Time           CPU           T/CPU          S/CPU         CPULeft
42610000   365006.83      2860.2878     -32063630       1.9277823      1086928       -30976702       652.11914      652.11914      652.11914      1673.9404      2326.0596      1673.9404      2326.0596      1673.9404      2326.0596      2.7731977e+08  0.25           11410000       0              0              0              0
Averages over the last 251 of 501 rows, steps 42660000 to 42710000:
Temp Press PotEng Density KinEng TotEng Lx Ly Lz Xlo Xhi Ylo Yhi Zlo Zhi Volume Dt
93550.2 900.541 -3.28597e+07 1.92778 278576 -3.25811e+07 652.119 652.119 652.119 1673.94 2326.06 1673.94 2326.06 1673.94 2326.06 2.7732e+08 0.25
Loop time of 7.49768 on 4 procs for 100000 steps with 1000 atoms

unfix 4

fix 5 all npt temp 300 300 $(100.0*dt) iso 1.0 1.0 $(1000.0*dt)
fix 5 all npt temp 300 300 25 iso 1.0 1.0 $(1000.0*dt)
fix 5 all npt temp 300 300 25 iso 1.0 1.0 250

run 300000
Generated 0 of 1 mixed pair_coeff terms from geometric mixing rule
Step          Temp          Press          PotEng        Density         KinEng         TotEng           Lx             Ly             Lz            Xlo            Xhi            Ylo            Yhi            Zlo            Zhi           Volume           Dt            Time           CPU           T/CPU          S/CPU         CPULeft
42710000   2375.6666      262.29314     -33101138       1.9277823      7074.3295     -33094063       652.11914      652.11914      652.11914      1673.9404      2326.0596      1673.9404      2326.0596      1673.9404      2326.0596      2.7731977e+08  0.25           11435000       0              0              0              0
Averages over the last 751 of 1501 rows, steps 42860000 to 43010000:
Temp Press PotEng Density KinEng TotEng Lx Ly Lz Xlo Xhi Ylo Yhi Zlo Zhi Volume Dt
301.076 0.930624 -3.3161e+07 1.92618 896.552 -3.31601e+07 652.3 652.3 652.3 1673.85 2326.15 1673.85 2326.15 1673.85 2326.15 2.77551e+08 0.25
Loop time of 26.5172 on 4 procs for 300000 steps with 1000 atoms

# run_style
run_style verlet

# write restart
write_restart ./pgnpmf/5050/equpmf42.res
System init for write_restart ...
Generated 0 of 1 mixed pair_coeff terms from geometric mixing rule
