LAMMPS (23 Jun 2022 - Update 1)
# Read restart
read_restart ./pgnpmf/5050/equpmf64.res
Reading restart file ...
  restart file = 23 Jun 2022, LAMMPS = 23 Jun 2022
  restoring atom style atomic from restart
  orthogonal box = (1674.4861 1674.4861 1674.4861) to (2325.5139 2325.5139 2325.5139)
  restoring pair style table from restart
  1000 atoms
  read_restart CPU = 0.006 seconds

# Settings

pair_style table spline 9941

pair_coeff 1 1 ./pgnpmf/N20.txt DE_GNP 75.6
pair_coeff 2 2 ./pgnpmf/N100.txt DE_GNP 115.92
pair_coeff 1 2 ./pgnpmf/mixed_potential.txt DE_GNP 95.66

#Neigh_list Calc Frequency

neigh_modify delay 0 every 1 check yes

# Saving Frequency (50 frames)

variable ts_save equal 5000

# Dump
#dump_modify 1 first no sort id
dump 2 all cfg 50000 ./pgnpmf/5050/equilibration/trajectory/dumpgen.tens_*.cfg mass type xs ys zs fx fy fz
dump_modify 2 element N20 N100

# thermo_style
thermo_style custom step temp press pe density ke etotal lx ly lz xlo xhi ylo yhi zlo zhi vol dt time cpu tpcpu spcpu cpuremain

# run info
timestep 0.25
thermo 200

# fix

fix 1 all momentum 1000 linear 1 1 1 angular
variable T equal 300
fix 2 all nvt temp 300 370000 100.0

run 100000
Generated 0 of 1 mixed pair_coeff terms from geometric mixing rule
Unused restart file global fix info:
  fix style: npt, fix ID: 5
  update every 1 steps, delay 0 steps, check yes
Step          Temp          Press          PotEng        Density         KinEng         TotEng           Lx             Ly             Lz            Xlo            Xhi            Ylo            Yhi            Zlo            Zhi           Volume           Dt            Time           CPU           T/CPU          S/CPU         CPULeft
65010000   297.5548      -1.6434123     -33335396       1.9374941      886.0674      -33334510       651.02773      651.02773      651.02773      1674.4861      2325.5139      1674.4861      2325.5139      1674.4861      2325.5139      2.7592971e+08  0.25           17010000       0              0              0              0
Averages over the last 251 of 501 rows, steps 65060000 to 65110000:
Temp Press PotEng Density KinEng TotEng Lx Ly Lz Xlo Xhi Ylo Yhi Zlo Zhi Volume Dt
277344 2206.63 -3.27014e+07 1.93749 825883 -3.18755e+07 651.028 651.028 651.028 1674.49 2325.51 1674.49 2325.51 1674.49 2325.51 2.7593e+08 0.25
Loop time of 7.82068 on 4 procs for 100000 steps with 1000 atoms

unfix 2

fix 3 all nvt temp 370000 370000 $(100.0*dt) #iso 1.0 1.0 $(1000.0*dt)
fix 3 all nvt temp 370000 370000 25

run 500000
Generated 0 of 1 mixed pair_coeff terms from geometric mixing rule
Step          Temp          Press          PotEng        Density         KinEng         TotEng           Lx             Ly             Lz            Xlo            Xhi            Ylo            Yhi            Zlo            Zhi           Volume           Dt            Time           CPU           T/CPU          S/CPU         CPULeft
65110000   378637.03      3123.0522     -32271159       1.9374941      1127516.4     -31143643       651.02773      651.02773      651.02773      1674.4861      2325.5139      1674.4861      2325.5139      1674.4861      2325.5139      2.7592971e+08  0.25           17035000       0              0              0              0
Averages over the last 1251 of 2501 rows, steps 65360000 to 65610000:
Temp Press PotEng Density KinEng TotEng Lx Ly Lz Xlo Xhi Ylo Yhi Zlo Zhi Volume Dt
370117 2820.55 -3.22012e+07 1.93749 1.10215e+06 -3.10991e+07 651.028 651.028 651.028 1674.49 2325.51 1674.49 2325.51 1674.49 2325.51 2.7593e+08 0.25
Loop time of 37.5204 on 4 procs for 500000 steps with 1000 atoms

unfix 3

fix 4 all nvt temp 370000 300 100.0

run 100000
Generated 0 of 1 mixed pair_coeff terms from geometric mixing rule
Step          Temp          Press          PotEng        Density         KinEng         TotEng           Lx             Ly             Lz            Xlo            Xhi            Ylo            Yhi            Zlo            Zhi           Volume           Dt            Time           CPU           T/CPU          S/CPU         CPULeft
65610000   371336.56      2751.464      -32236133       1.9374941      1105776.9     -31130356       651.02773      651.02773      651.02773      1674.4861      2325.5139      1674.4861      2325.5139      1674.4861      2325.5139      2.7592971e+08  0.25           17160000       0              0              0              0
Averages over the last 251 of 501 rows, steps 65660000 to 65710000:
Temp Press PotEng Density KinEng TotEng Lx Ly Lz Xlo Xhi Ylo Yhi Zlo Zhi Volume Dt
93598.8 797.733 -3.29304e+07 1.93749 278721 -3.26517e+07 651.028 651.028 651.028 1674.49 2325.51 1674.49 2325.51 1674.49 2325.51 2.7593e+08 0.25
Loop time of 7.27894 on 4 procs for 100000 steps with 1000 atoms

unfix 4

fix 5 all npt temp 300 300 $(100.0*dt) iso 1.0 1.0 $(1000.0*dt)
fix 5 all npt temp 300 300 25 iso 1.0 1.0 $(1000.0*dt)
fix 5 all npt temp 300 300 25 iso 1.0 1.0 250

run 300000
Generated 0 of 1 mixed pair_coeff terms from geometric mixing rule
Step          Temp          Press          PotEng        Density         KinEng         TotEng           Lx             Ly             Lz            Xlo            Xhi            Ylo            Yhi            Zlo            Zhi           Volume           Dt            Time           CPU           T/CPU          S/CPU         CPULeft
65710000   2385.4859      173.81448     -33182605       1.9374941      7103.5697     -33175501       651.02773      651.02773      651.02773      1674.4861      2325.5139      1674.4861      2325.5139      1674.4861      2325.5139      2.7592971e+08  0.25           17185000       0              0              0              0
Averages over the last 751 of 1501 rows, steps 65860000 to 66010000:
Temp Press PotEng Density KinEng TotEng Lx Ly Lz Xlo Xhi Ylo Yhi Zlo Zhi Volume Dt
301.089 1.09523 -3.33149e+07 1.93816 896.591 -3.3314e+07 650.953 650.953 650.953 1674.52 2325.48 1674.52 2325.48 1674.52 2325.48 2.75835e+08 0.25
Loop time of 25.7367 on 4 procs for 300000 steps with 1000 atoms

# run_style
run_style verlet

# write restart
write_restart ./pgnpmf/5050/equpmf65.res
System init for write_restart ...
Generated 0 of 1 mixed pair_coeff terms from geometric mixing rule
