LAMMPS (23 Jun 2022 - Update 1)
# Read restart
read_restart ./pgnpmf/5050/equpmf48.res
Reading restart file ...
  restart file = 23 Jun 2022, LAMMPS = 23 Jun 2022
  restoring atom style atomic from restart
  orthogonal box = (1674.2222 1674.2222 1674.2222) to (2325.7778 2325.7778 2325.7778)
  restoring pair style table from restart
  1000 atoms
  read_restart CPU = 0.004 seconds

# Settings

pair_style table spline 9941

pair_coeff 1 1 ./pgnpmf/N20.txt DE_GNP 75.6
pair_coeff 2 2 ./pgnpmf/N100.txt DE_GNP 115.92
pair_coeff 1 2 ./pgnpmf/mixed_potential.txt DE_GNP 95.66

#Neigh_list Calc Frequency

neigh_modify delay 0 every 1 check yes

# Saving Frequency (50 frames)

variable ts_save equal 5000

# Dump
#dump_modify 1 first no sort id
dump 2 all cfg 50000 ./pgnpmf/5050/equilibration/trajectory/dumpgen.tens_*.cfg mass type xs ys zs fx fy fz
dump_modify 2 element N20 N100

# thermo_style
thermo_style custom step temp press pe density ke etotal lx ly lz xlo xhi ylo yhi zlo zhi vol dt time cpu tpcpu spcpu cpuremain

# run info
timestep 0.25
thermo 200

# fix

fix 1 all momentum 1000 linear 1 1 1 angular
variable T equal 300
fix 2 all nvt temp 300 370000 100.0

run 100000
Generated 0 of 1 mixed pair_coeff terms from geometric mixing rule
Unused restart file global fix info:
  fix style: npt, fix ID: 5
  update every 1 steps, delay 0 steps, check yes
Step          Temp          Press          PotEng        Density         KinEng         TotEng           Lx             Ly             Lz            Xlo            Xhi            Ylo            Yhi            Zlo            Zhi           Volume           Dt            Time           CPU           T/CPU          S/CPU         CPULeft
49010000   296.33653      7.9929927     -33179870       1.932788       882.43958     -33178988       651.55568      651.55568      651.55568      1674.2222      2325.7778      1674.2222      2325.7778      1674.2222      2325.7778      2.7660155e+08  0.25           13010000       0              0              0              0
Averages over the last 251 of 501 rows, steps 49060000 to 49110000:
Temp Press PotEng Density KinEng TotEng Lx Ly Lz Xlo Xhi Ylo Yhi Zlo Zhi Volume Dt
277349 2308.24 -3.25435e+07 1.93279 825897 -3.17176e+07 651.556 651.556 651.556 1674.22 2325.78 1674.22 2325.78 1674.22 2325.78 2.76602e+08 0.25
Loop time of 7.3025 on 4 procs for 100000 steps with 1000 atoms

unfix 2

fix 3 all nvt temp 370000 370000 $(100.0*dt) #iso 1.0 1.0 $(1000.0*dt)
fix 3 all nvt temp 370000 370000 25

run 500000
Generated 0 of 1 mixed pair_coeff terms from geometric mixing rule
Step          Temp          Press          PotEng        Density         KinEng         TotEng           Lx             Ly             Lz            Xlo            Xhi            Ylo            Yhi            Zlo            Zhi           Volume           Dt            Time           CPU           T/CPU          S/CPU         CPULeft
49110000   372257.94      2978.8174     -32205682       1.932788       1108520.6     -31097161       651.55568      651.55568      651.55568      1674.2222      2325.7778      1674.2222      2325.7778      1674.2222      2325.7778      2.7660155e+08  0.25           13035000       0              0              0              0
Averages over the last 1251 of 2501 rows, steps 49360000 to 49610000:
Temp Press PotEng Density KinEng TotEng Lx Ly Lz Xlo Xhi Ylo Yhi Zlo Zhi Volume Dt
370067 2798.57 -3.21744e+07 1.93279 1.102e+06 -3.10724e+07 651.556 651.556 651.556 1674.22 2325.78 1674.22 2325.78 1674.22 2325.78 2.76602e+08 0.25
Loop time of 37.1247 on 4 procs for 500000 steps with 1000 atoms

unfix 3

fix 4 all nvt temp 370000 300 100.0

run 100000
Generated 0 of 1 mixed pair_coeff terms from geometric mixing rule
Step          Temp          Press          PotEng        Density         KinEng         TotEng           Lx             Ly             Lz            Xlo            Xhi            Ylo            Yhi            Zlo            Zhi           Volume           Dt            Time           CPU           T/CPU          S/CPU         CPULeft
49610000   400938.79      2791.5622     -32063110       1.932788       1193927.2     -30869183       651.55568      651.55568      651.55568      1674.2222      2325.7778      1674.2222      2325.7778      1674.2222      2325.7778      2.7660155e+08  0.25           13160000       0              0              0              0
Averages over the last 251 of 501 rows, steps 49660000 to 49710000:
Temp Press PotEng Density KinEng TotEng Lx Ly Lz Xlo Xhi Ylo Yhi Zlo Zhi Volume Dt
93764.7 862.657 -3.28631e+07 1.93279 279215 -3.25839e+07 651.556 651.556 651.556 1674.22 2325.78 1674.22 2325.78 1674.22 2325.78 2.76602e+08 0.25
Loop time of 7.46899 on 4 procs for 100000 steps with 1000 atoms

unfix 4

fix 5 all npt temp 300 300 $(100.0*dt) iso 1.0 1.0 $(1000.0*dt)
fix 5 all npt temp 300 300 25 iso 1.0 1.0 $(1000.0*dt)
fix 5 all npt temp 300 300 25 iso 1.0 1.0 250

run 300000
Generated 0 of 1 mixed pair_coeff terms from geometric mixing rule
Step          Temp          Press          PotEng        Density         KinEng         TotEng           Lx             Ly             Lz            Xlo            Xhi            Ylo            Yhi            Zlo            Zhi           Volume           Dt            Time           CPU           T/CPU          S/CPU         CPULeft
49710000   2396.047       213.42408     -33086235       1.932788       7135.0189     -33079100       651.55568      651.55568      651.55568      1674.2222      2325.7778      1674.2222      2325.7778      1674.2222      2325.7778      2.7660155e+08  0.25           13185000       0              0              0              0
Averages over the last 751 of 1501 rows, steps 49860000 to 50010000:
Temp Press PotEng Density KinEng TotEng Lx Ly Lz Xlo Xhi Ylo Yhi Zlo Zhi Volume Dt
301.685 0.915019 -3.32315e+07 1.93259 898.365 -3.32306e+07 651.578 651.578 651.578 1674.21 2325.79 1674.21 2325.79 1674.21 2325.79 2.7663e+08 0.25
Loop time of 25.8449 on 4 procs for 300000 steps with 1000 atoms

# run_style
run_style verlet

# write restart
write_restart ./pgnpmf/5050/equpmf49.res
System init for write_restart ...
Generated 0 of 1 mixed pair_coeff terms from geometric mixing rule
