LAMMPS (23 Jun 2022 - Update 1)
# Read restart
read_restart ./pgnpmf/73/equpmf53.res
Reading restart file ...
  restart file = 23 Jun 2022, LAMMPS = 23 Jun 2022
  restoring atom style atomic from restart
  orthogonal box = (1701.6958 1701.6958 1701.6958) to (2298.3042 2298.3042 2298.3042)
  restoring pair style table from restart
  1000 atoms
  read_restart CPU = 0.007 seconds

# Settings

pair_style table spline 9941

pair_coeff 1 1 ./pgnpmf/N20.txt DE_GNP 75.6
pair_coeff 2 2 ./pgnpmf/N100.txt DE_GNP 115.92
pair_coeff 1 2 ./pgnpmf/mixed_potential.txt DE_GNP 95.66

#Neigh_list Calc Frequency

neigh_modify delay 0 every 1 check yes

# Saving Frequency (50 frames)

variable ts_save equal 5000

# Dump
#dump_modify 1 first no sort id
dump 2 all cfg 50000 ./pgnpmf/73/equilibration/trajectory/dumpgen.tens_*.cfg mass type xs ys zs fx fy fz
dump_modify 2 element N20 N100

# thermo_style
thermo_style custom step temp press pe density ke etotal lx ly lz xlo xhi ylo yhi zlo zhi vol dt time cpu tpcpu spcpu cpuremain

# run info
timestep 0.5
thermo 200

# fix

fix 1 all momentum 1000 linear 1 1 1 angular
variable T equal 300
fix 2 all nvt temp 300 370000 100.0

run 100000
Generated 0 of 1 mixed pair_coeff terms from geometric mixing rule
Unused restart file global fix info:
  fix style: npt, fix ID: 5
  update every 1 steps, delay 0 steps, check yes
Step          Temp          Press          PotEng        Density         KinEng         TotEng           Lx             Ly             Lz            Xlo            Xhi            Ylo            Yhi            Zlo            Zhi           Volume           Dt            Time           CPU           T/CPU          S/CPU         CPULeft
37510000   294.48753      8.5262058     -21944051       2.2044138      876.93357     -21943174       596.60834      596.60834      596.60834      1701.6958      2298.3042      1701.6958      2298.3042      1701.6958      2298.3042      2.1235768e+08  0.5            18960000       0              0              0              0
Averages over the last 251 of 501 rows, steps 37560000 to 37610000:
Temp Press PotEng Density KinEng TotEng Lx Ly Lz Xlo Xhi Ylo Yhi Zlo Zhi Volume Dt
277409 3051.17 -2.10981e+07 2.20441 826076 -2.0272e+07 596.608 596.608 596.608 1701.7 2298.3 1701.7 2298.3 1701.7 2298.3 2.12358e+08 0.5
Loop time of 5.6976 on 4 procs for 100000 steps with 1000 atoms

unfix 2

fix 3 all nvt temp 370000 370000 $(100.0*dt) #iso 1.0 1.0 $(1000.0*dt)
fix 3 all nvt temp 370000 370000 50

run 200000
Generated 0 of 1 mixed pair_coeff terms from geometric mixing rule
Step          Temp          Press          PotEng        Density         KinEng         TotEng           Lx             Ly             Lz            Xlo            Xhi            Ylo            Yhi            Zlo            Zhi           Volume           Dt            Time           CPU           T/CPU          S/CPU         CPULeft
37610000   372961.47      3955.1185     -20853961       2.2044138      1110615.6     -19743345       596.60834      596.60834      596.60834      1701.6958      2298.3042      1701.6958      2298.3042      1701.6958      2298.3042      2.1235768e+08  0.5            19010000       0              0              0              0
Averages over the last 501 of 1001 rows, steps 37710000 to 37810000:
Temp Press PotEng Density KinEng TotEng Lx Ly Lz Xlo Xhi Ylo Yhi Zlo Zhi Volume Dt
369858 3756.2 -2.08007e+07 2.20441 1.10137e+06 -1.96993e+07 596.608 596.608 596.608 1701.7 2298.3 1701.7 2298.3 1701.7 2298.3 2.12358e+08 0.5
Loop time of 11.3489 on 4 procs for 200000 steps with 1000 atoms

unfix 3

fix 4 all nvt temp 370000 300 100.0

run 100000
Generated 0 of 1 mixed pair_coeff terms from geometric mixing rule
Step          Temp          Press          PotEng        Density         KinEng         TotEng           Lx             Ly             Lz            Xlo            Xhi            Ylo            Yhi            Zlo            Zhi           Volume           Dt            Time           CPU           T/CPU          S/CPU         CPULeft
37810000   366972.86      3766.6532     -20756931       2.2044138      1092782.5     -19664148       596.60834      596.60834      596.60834      1701.6958      2298.3042      1701.6958      2298.3042      1701.6958      2298.3042      2.1235768e+08  0.5            19110000       0              0              0              0
Averages over the last 251 of 501 rows, steps 37860000 to 37910000:
Temp Press PotEng Density KinEng TotEng Lx Ly Lz Xlo Xhi Ylo Yhi Zlo Zhi Volume Dt
93032.7 1111.06 -2.15373e+07 2.20441 277035 -2.12602e+07 596.608 596.608 596.608 1701.7 2298.3 1701.7 2298.3 1701.7 2298.3 2.12358e+08 0.5
Loop time of 5.56552 on 4 procs for 100000 steps with 1000 atoms

unfix 4

fix 5 all npt temp 300 300 $(100.0*dt) iso 1.0 1.0 $(1000.0*dt)
fix 5 all npt temp 300 300 50 iso 1.0 1.0 $(1000.0*dt)
fix 5 all npt temp 300 300 50 iso 1.0 1.0 500

run 300000
Generated 0 of 1 mixed pair_coeff terms from geometric mixing rule
Step          Temp          Press          PotEng        Density         KinEng         TotEng           Lx             Ly             Lz            Xlo            Xhi            Ylo            Yhi            Zlo            Zhi           Volume           Dt            Time           CPU           T/CPU          S/CPU         CPULeft
37910000   1394.3873      208.11602     -21777283       2.2044138      4152.2472     -21773130       596.60834      596.60834      596.60834      1701.6958      2298.3042      1701.6958      2298.3042      1701.6958      2298.3042      2.1235768e+08  0.5            19160000       0              0              0              0
Averages over the last 751 of 1501 rows, steps 38060000 to 38210000:
Temp Press PotEng Density KinEng TotEng Lx Ly Lz Xlo Xhi Ylo Yhi Zlo Zhi Volume Dt
300.038 1.17319 -2.18419e+07 2.20097 893.463 -2.1841e+07 596.92 596.92 596.92 1701.54 2298.46 1701.54 2298.46 1701.54 2298.46 2.1269e+08 0.5
Loop time of 19.7429 on 4 procs for 300000 steps with 1000 atoms

# run_style
run_style verlet

# write restart
write_restart ./pgnpmf/73/equpmf54.res
System init for write_restart ...
Generated 0 of 1 mixed pair_coeff terms from geometric mixing rule
