LAMMPS (23 Jun 2022 - Update 1)
# Read restart
read_restart ./pgnpmf/73/equpmf66.res
Reading restart file ...
  restart file = 23 Jun 2022, LAMMPS = 23 Jun 2022
  restoring atom style atomic from restart
  orthogonal box = (1701.7293 1701.7293 1701.7293) to (2298.2707 2298.2707 2298.2707)
  restoring pair style table from restart
  1000 atoms
  read_restart CPU = 0.009 seconds

# Settings

pair_style table spline 9941

pair_coeff 1 1 ./pgnpmf/N20.txt DE_GNP 75.6
pair_coeff 2 2 ./pgnpmf/N100.txt DE_GNP 115.92
pair_coeff 1 2 ./pgnpmf/mixed_potential.txt DE_GNP 95.66

#Neigh_list Calc Frequency

neigh_modify delay 0 every 1 check yes

# Saving Frequency (50 frames)

variable ts_save equal 5000

# Dump
#dump_modify 1 first no sort id
dump 2 all cfg 50000 ./pgnpmf/73/equilibration/trajectory/dumpgen.tens_*.cfg mass type xs ys zs fx fy fz
dump_modify 2 element N20 N100

# thermo_style
thermo_style custom step temp press pe density ke etotal lx ly lz xlo xhi ylo yhi zlo zhi vol dt time cpu tpcpu spcpu cpuremain

# run info
timestep 0.5
thermo 200

# fix

fix 1 all momentum 1000 linear 1 1 1 angular
variable T equal 300
fix 2 all nvt temp 300 370000 100.0

run 100000
Generated 0 of 1 mixed pair_coeff terms from geometric mixing rule
Unused restart file global fix info:
  fix style: npt, fix ID: 5
  update every 1 steps, delay 0 steps, check yes
Step          Temp          Press          PotEng        Density         KinEng         TotEng           Lx             Ly             Lz            Xlo            Xhi            Ylo            Yhi            Zlo            Zhi           Volume           Dt            Time           CPU           T/CPU          S/CPU         CPULeft
46610000   300.42086      0.38499339    -21889733       2.2051561      894.60201     -21888838       596.54139      596.54139      596.54139      1701.7293      2298.2707      1701.7293      2298.2707      1701.7293      2298.2707      2.1228619e+08  0.5            23510000       0              0              0              0
Averages over the last 251 of 501 rows, steps 46660000 to 46710000:
Temp Press PotEng Density KinEng TotEng Lx Ly Lz Xlo Xhi Ylo Yhi Zlo Zhi Volume Dt
277306 2885.17 -2.10981e+07 2.20516 825770 -2.02723e+07 596.541 596.541 596.541 1701.73 2298.27 1701.73 2298.27 1701.73 2298.27 2.12286e+08 0.5
Loop time of 5.60573 on 4 procs for 100000 steps with 1000 atoms

unfix 2

fix 3 all nvt temp 370000 370000 $(100.0*dt) #iso 1.0 1.0 $(1000.0*dt)
fix 3 all nvt temp 370000 370000 50

run 200000
Generated 0 of 1 mixed pair_coeff terms from geometric mixing rule
Step          Temp          Press          PotEng        Density         KinEng         TotEng           Lx             Ly             Lz            Xlo            Xhi            Ylo            Yhi            Zlo            Zhi           Volume           Dt            Time           CPU           T/CPU          S/CPU         CPULeft
46710000   367013.98      3650.1321     -20830566       2.2051561      1092905       -19737661       596.54139      596.54139      596.54139      1701.7293      2298.2707      1701.7293      2298.2707      1701.7293      2298.2707      2.1228619e+08  0.5            23560000       0              0              0              0
Averages over the last 501 of 1001 rows, steps 46810000 to 46910000:
Temp Press PotEng Density KinEng TotEng Lx Ly Lz Xlo Xhi Ylo Yhi Zlo Zhi Volume Dt
370117 3708.14 -2.07896e+07 2.20516 1.10214e+06 -1.96874e+07 596.541 596.541 596.541 1701.73 2298.27 1701.73 2298.27 1701.73 2298.27 2.12286e+08 0.5
Loop time of 11.2661 on 4 procs for 200000 steps with 1000 atoms

unfix 3

fix 4 all nvt temp 370000 300 100.0

run 100000
Generated 0 of 1 mixed pair_coeff terms from geometric mixing rule
Step          Temp          Press          PotEng        Density         KinEng         TotEng           Lx             Ly             Lz            Xlo            Xhi            Ylo            Yhi            Zlo            Zhi           Volume           Dt            Time           CPU           T/CPU          S/CPU         CPULeft
46910000   369996.81      3797.1219     -20790966       2.2051561      1101787.3     -19689179       596.54139      596.54139      596.54139      1701.7293      2298.2707      1701.7293      2298.2707      1701.7293      2298.2707      2.1228619e+08  0.5            23660000       0              0              0              0
Averages over the last 251 of 501 rows, steps 46960000 to 47010000:
Temp Press PotEng Density KinEng TotEng Lx Ly Lz Xlo Xhi Ylo Yhi Zlo Zhi Volume Dt
93010 1128.9 -2.15617e+07 2.20516 276968 -2.12847e+07 596.541 596.541 596.541 1701.73 2298.27 1701.73 2298.27 1701.73 2298.27 2.12286e+08 0.5
Loop time of 5.6231 on 4 procs for 100000 steps with 1000 atoms

unfix 4

fix 5 all npt temp 300 300 $(100.0*dt) iso 1.0 1.0 $(1000.0*dt)
fix 5 all npt temp 300 300 50 iso 1.0 1.0 $(1000.0*dt)
fix 5 all npt temp 300 300 50 iso 1.0 1.0 500

run 300000
Generated 0 of 1 mixed pair_coeff terms from geometric mixing rule
Step          Temp          Press          PotEng        Density         KinEng         TotEng           Lx             Ly             Lz            Xlo            Xhi            Ylo            Yhi            Zlo            Zhi           Volume           Dt            Time           CPU           T/CPU          S/CPU         CPULeft
47010000   1402.3738      203.04053     -21765834       2.2051561      4176.0298     -21761658       596.54139      596.54139      596.54139      1701.7293      2298.2707      1701.7293      2298.2707      1701.7293      2298.2707      2.1228619e+08  0.5            23710000       0              0              0              0
Averages over the last 751 of 1501 rows, steps 47160000 to 47310000:
Temp Press PotEng Density KinEng TotEng Lx Ly Lz Xlo Xhi Ylo Yhi Zlo Zhi Volume Dt
300.146 1.12356 -2.17882e+07 2.20075 893.782 -2.17873e+07 596.939 596.939 596.939 1701.53 2298.47 1701.53 2298.47 1701.53 2298.47 2.12711e+08 0.5
Loop time of 19.7198 on 4 procs for 300000 steps with 1000 atoms

# run_style
run_style verlet

# write restart
write_restart ./pgnpmf/73/equpmf67.res
System init for write_restart ...
Generated 0 of 1 mixed pair_coeff terms from geometric mixing rule
