LAMMPS (23 Jun 2022 - Update 1)
# Read restart
read_restart ./pgnpmf/73/equpmf18.res
Reading restart file ...
  restart file = 23 Jun 2022, LAMMPS = 23 Jun 2022
  restoring atom style atomic from restart
  orthogonal box = (1666.1986 1666.1986 1666.1986) to (2333.8014 2333.8014 2333.8014)
  restoring pair style table from restart
  1000 atoms
  read_restart CPU = 0.008 seconds

# Settings

pair_style table spline 9941

pair_coeff 1 1 ./pgnpmf/N20.txt DE_GNP 75.6
pair_coeff 2 2 ./pgnpmf/N100.txt DE_GNP 115.92
pair_coeff 1 2 ./pgnpmf/mixed_potential.txt DE_GNP 95.66

#Neigh_list Calc Frequency

neigh_modify delay 0 every 1 check yes

# Saving Frequency (50 frames)

variable ts_save equal 5000

# Dump
#dump_modify 1 first no sort id
dump 2 all cfg 50000 ./pgnpmf/73/equilibration/trajectory/dumpgen.tens_*.cfg mass type xs ys zs fx fy fz
dump_modify 2 element N20 N100

# thermo_style
thermo_style custom step temp press pe density ke etotal lx ly lz xlo xhi ylo yhi zlo zhi vol dt time cpu tpcpu spcpu cpuremain

# run info
timestep 0.5
thermo 200

# fix

fix 1 all momentum 1000 linear 1 1 1 angular
variable T equal 300
fix 2 all nvt temp 300 370000 100.0

run 100000
Generated 0 of 1 mixed pair_coeff terms from geometric mixing rule
Unused restart file global fix info:
  fix style: npt, fix ID: 5
  update every 1 steps, delay 0 steps, check yes
Step          Temp          Press          PotEng        Density         KinEng         TotEng           Lx             Ly             Lz            Xlo            Xhi            Ylo            Yhi            Zlo            Zhi           Volume           Dt            Time           CPU           T/CPU          S/CPU         CPULeft
13010000   311.37288     -2.9234249     -18760010       1.5732816      927.21525     -18759083       667.60288      667.60288      667.60288      1666.1986      2333.8014      1666.1986      2333.8014      1666.1986      2333.8014      2.9754634e+08  0.5            6710000        0              0              0              0
Averages over the last 251 of 501 rows, steps 13060000 to 13110000:
Temp Press PotEng Density KinEng TotEng Lx Ly Lz Xlo Xhi Ylo Yhi Zlo Zhi Volume Dt
277462 255.266 -1.85986e+07 1.57328 826234 -1.77723e+07 667.603 667.603 667.603 1666.2 2333.8 1666.2 2333.8 1666.2 2333.8 2.97546e+08 0.5
Loop time of 5.08275 on 4 procs for 100000 steps with 1000 atoms

unfix 2

fix 3 all nvt temp 370000 370000 $(100.0*dt) #iso 1.0 1.0 $(1000.0*dt)
fix 3 all nvt temp 370000 370000 50

run 200000
Generated 0 of 1 mixed pair_coeff terms from geometric mixing rule
Step          Temp          Press          PotEng        Density         KinEng         TotEng           Lx             Ly             Lz            Xlo            Xhi            Ylo            Yhi            Zlo            Zhi           Volume           Dt            Time           CPU           T/CPU          S/CPU         CPULeft
13110000   359658.23      465.04967     -18435094       1.5732816      1071000.8     -17364094       667.60288      667.60288      667.60288      1666.1986      2333.8014      1666.1986      2333.8014      1666.1986      2333.8014      2.9754634e+08  0.5            6760000        0              0              0              0
Averages over the last 501 of 1001 rows, steps 13210000 to 13310000:
Temp Press PotEng Density KinEng TotEng Lx Ly Lz Xlo Xhi Ylo Yhi Zlo Zhi Volume Dt
369775 246.54 -1.75316e+07 1.57328 1.10113e+06 -1.64305e+07 667.603 667.603 667.603 1666.2 2333.8 1666.2 2333.8 1666.2 2333.8 2.97546e+08 0.5
Loop time of 9.96453 on 4 procs for 200000 steps with 1000 atoms

unfix 3

fix 4 all nvt temp 370000 300 100.0

run 100000
Generated 0 of 1 mixed pair_coeff terms from geometric mixing rule
Step          Temp          Press          PotEng        Density         KinEng         TotEng           Lx             Ly             Lz            Xlo            Xhi            Ylo            Yhi            Zlo            Zhi           Volume           Dt            Time           CPU           T/CPU          S/CPU         CPULeft
13310000   381392.88      189.36622     -17426098       1.5732816      1135722.9     -16290375       667.60288      667.60288      667.60288      1666.1986      2333.8014      1666.1986      2333.8014      1666.1986      2333.8014      2.9754634e+08  0.5            6860000        0              0              0              0
Averages over the last 251 of 501 rows, steps 13360000 to 13410000:
Temp Press PotEng Density KinEng TotEng Lx Ly Lz Xlo Xhi Ylo Yhi Zlo Zhi Volume Dt
93046 -652.13 -1.81064e+07 1.57328 277075 -1.78293e+07 667.603 667.603 667.603 1666.2 2333.8 1666.2 2333.8 1666.2 2333.8 2.97546e+08 0.5
Loop time of 4.91113 on 4 procs for 100000 steps with 1000 atoms

unfix 4

fix 5 all npt temp 300 300 $(100.0*dt) iso 1.0 1.0 $(1000.0*dt)
fix 5 all npt temp 300 300 50 iso 1.0 1.0 $(1000.0*dt)
fix 5 all npt temp 300 300 50 iso 1.0 1.0 500

run 300000
Generated 0 of 1 mixed pair_coeff terms from geometric mixing rule
Step          Temp          Press          PotEng        Density         KinEng         TotEng           Lx             Ly             Lz            Xlo            Xhi            Ylo            Yhi            Zlo            Zhi           Volume           Dt            Time           CPU           T/CPU          S/CPU         CPULeft
13410000   1382.3484     -1006.7776     -18449624       1.5732816      4116.3974     -18445507       667.60288      667.60288      667.60288      1666.1986      2333.8014      1666.1986      2333.8014      1666.1986      2333.8014      2.9754634e+08  0.5            6910000        0              0              0              0
Averages over the last 751 of 1501 rows, steps 13560000 to 13710000:
Temp Press PotEng Density KinEng TotEng Lx Ly Lz Xlo Xhi Ylo Yhi Zlo Zhi Volume Dt
313.915 0.9861 -1.9267e+07 1.71018 934.785 -1.92661e+07 649.296 649.296 649.296 1675.35 2324.65 1675.35 2324.65 1675.35 2324.65 2.73737e+08 0.5
Loop time of 17.9661 on 4 procs for 300000 steps with 1000 atoms

# run_style
run_style verlet

# write restart
write_restart ./pgnpmf/73/equpmf19.res
System init for write_restart ...
Generated 0 of 1 mixed pair_coeff terms from geometric mixing rule
