LAMMPS (23 Jun 2022 - Update 1)
# Read restart
read_restart ./pgnpmf/73/equpmf68.res
Reading restart file ...
  restart file = 23 Jun 2022, LAMMPS = 23 Jun 2022
  restoring atom style atomic from restart
  orthogonal box = (1701.5928 1701.5928 1701.5928) to (2298.4072 2298.4072 2298.4072)
  restoring pair style table from restart
  1000 atoms
  read_restart CPU = 0.007 seconds

# Settings

pair_style table spline 9941

pair_coeff 1 1 ./pgnpmf/N20.txt DE_GNP 75.6
pair_coeff 2 2 ./pgnpmf/N100.txt DE_GNP 115.92
pair_coeff 1 2 ./pgnpmf/mixed_potential.txt DE_GNP 95.66

#Neigh_list Calc Frequency

neigh_modify delay 0 every 1 check yes

# Saving Frequency (50 frames)

variable ts_save equal 5000

# Dump
#dump_modify 1 first no sort id
dump 2 all cfg 50000 ./pgnpmf/73/equilibration/trajectory/dumpgen.tens_*.cfg mass type xs ys zs fx fy fz
dump_modify 2 element N20 N100

# thermo_style
thermo_style custom step temp press pe density ke etotal lx ly lz xlo xhi ylo yhi zlo zhi vol dt time cpu tpcpu spcpu cpuremain

# run info
timestep 0.5
thermo 200

# fix

fix 1 all momentum 1000 linear 1 1 1 angular
variable T equal 300
fix 2 all nvt temp 300 370000 100.0

run 100000
Generated 0 of 1 mixed pair_coeff terms from geometric mixing rule
Unused restart file global fix info:
  fix style: npt, fix ID: 5
  update every 1 steps, delay 0 steps, check yes
Step          Temp          Press          PotEng        Density         KinEng         TotEng           Lx             Ly             Lz            Xlo            Xhi            Ylo            Yhi            Zlo            Zhi           Volume           Dt            Time           CPU           T/CPU          S/CPU         CPULeft
48010000   308.56649      1.2813805     -21897755       2.2021308      918.8583      -21896837       596.81444      596.81444      596.81444      1701.5928      2298.4072      1701.5928      2298.4072      1701.5928      2298.4072      2.1257783e+08  0.5            24210000       0              0              0              0
Averages over the last 251 of 501 rows, steps 48060000 to 48110000:
Temp Press PotEng Density KinEng TotEng Lx Ly Lz Xlo Xhi Ylo Yhi Zlo Zhi Volume Dt
277698 2861.54 -2.11154e+07 2.20213 826938 -2.02884e+07 596.814 596.814 596.814 1701.59 2298.41 1701.59 2298.41 1701.59 2298.41 2.12578e+08 0.5
Loop time of 5.64371 on 4 procs for 100000 steps with 1000 atoms

unfix 2

fix 3 all nvt temp 370000 370000 $(100.0*dt) #iso 1.0 1.0 $(1000.0*dt)
fix 3 all nvt temp 370000 370000 50

run 200000
Generated 0 of 1 mixed pair_coeff terms from geometric mixing rule
Step          Temp          Press          PotEng        Density         KinEng         TotEng           Lx             Ly             Lz            Xlo            Xhi            Ylo            Yhi            Zlo            Zhi           Volume           Dt            Time           CPU           T/CPU          S/CPU         CPULeft
48110000   383518.97      3807.2108     -20799520       2.2021308      1142054       -19657466       596.81444      596.81444      596.81444      1701.5928      2298.4072      1701.5928      2298.4072      1701.5928      2298.4072      2.1257783e+08  0.5            24260000       0              0              0              0
Averages over the last 501 of 1001 rows, steps 48210000 to 48310000:
Temp Press PotEng Density KinEng TotEng Lx Ly Lz Xlo Xhi Ylo Yhi Zlo Zhi Volume Dt
369941 3654.6 -2.08284e+07 2.20213 1.10162e+06 -1.97268e+07 596.814 596.814 596.814 1701.59 2298.41 1701.59 2298.41 1701.59 2298.41 2.12578e+08 0.5
Loop time of 11.3623 on 4 procs for 200000 steps with 1000 atoms

unfix 3

fix 4 all nvt temp 370000 300 100.0

run 100000
Generated 0 of 1 mixed pair_coeff terms from geometric mixing rule
Step          Temp          Press          PotEng        Density         KinEng         TotEng           Lx             Ly             Lz            Xlo            Xhi            Ylo            Yhi            Zlo            Zhi           Volume           Dt            Time           CPU           T/CPU          S/CPU         CPULeft
48310000   381257.51      3741.3837     -20842046       2.2021308      1135319.8     -19706727       596.81444      596.81444      596.81444      1701.5928      2298.4072      1701.5928      2298.4072      1701.5928      2298.4072      2.1257783e+08  0.5            24360000       0              0              0              0
Averages over the last 251 of 501 rows, steps 48360000 to 48410000:
Temp Press PotEng Density KinEng TotEng Lx Ly Lz Xlo Xhi Ylo Yhi Zlo Zhi Volume Dt
93025.1 1082.91 -2.15631e+07 2.20213 277013 -2.12861e+07 596.814 596.814 596.814 1701.59 2298.41 1701.59 2298.41 1701.59 2298.41 2.12578e+08 0.5
Loop time of 5.61612 on 4 procs for 100000 steps with 1000 atoms

unfix 4

fix 5 all npt temp 300 300 $(100.0*dt) iso 1.0 1.0 $(1000.0*dt)
fix 5 all npt temp 300 300 50 iso 1.0 1.0 $(1000.0*dt)
fix 5 all npt temp 300 300 50 iso 1.0 1.0 500

run 300000
Generated 0 of 1 mixed pair_coeff terms from geometric mixing rule
Step          Temp          Press          PotEng        Density         KinEng         TotEng           Lx             Ly             Lz            Xlo            Xhi            Ylo            Yhi            Zlo            Zhi           Volume           Dt            Time           CPU           T/CPU          S/CPU         CPULeft
48410000   1377.8964      148.55782     -21848022       2.2021308      4103.1403     -21843919       596.81444      596.81444      596.81444      1701.5928      2298.4072      1701.5928      2298.4072      1701.5928      2298.4072      2.1257783e+08  0.5            24410000       0              0              0              0
Averages over the last 751 of 1501 rows, steps 48560000 to 48710000:
Temp Press PotEng Density KinEng TotEng Lx Ly Lz Xlo Xhi Ylo Yhi Zlo Zhi Volume Dt
300.195 0.571636 -2.19185e+07 2.20068 893.929 -2.19176e+07 596.945 596.945 596.945 1701.53 2298.47 1701.53 2298.47 1701.53 2298.47 2.12718e+08 0.5
Loop time of 19.8614 on 4 procs for 300000 steps with 1000 atoms

# run_style
run_style verlet

# write restart
write_restart ./pgnpmf/73/equpmf69.res
System init for write_restart ...
Generated 0 of 1 mixed pair_coeff terms from geometric mixing rule
