LAMMPS (23 Jun 2022 - Update 1)
# Read restart
read_restart ./pgnpmf/73/equpmf62.res
Reading restart file ...
  restart file = 23 Jun 2022, LAMMPS = 23 Jun 2022
  restoring atom style atomic from restart
  orthogonal box = (1701.4602 1701.4602 1701.4602) to (2298.5398 2298.5398 2298.5398)
  restoring pair style table from restart
  1000 atoms
  read_restart CPU = 0.009 seconds

# Settings

pair_style table spline 9941

pair_coeff 1 1 ./pgnpmf/N20.txt DE_GNP 75.6
pair_coeff 2 2 ./pgnpmf/N100.txt DE_GNP 115.92
pair_coeff 1 2 ./pgnpmf/mixed_potential.txt DE_GNP 95.66

#Neigh_list Calc Frequency

neigh_modify delay 0 every 1 check yes

# Saving Frequency (50 frames)

variable ts_save equal 5000

# Dump
#dump_modify 1 first no sort id
dump 2 all cfg 50000 ./pgnpmf/73/equilibration/trajectory/dumpgen.tens_*.cfg mass type xs ys zs fx fy fz
dump_modify 2 element N20 N100

# thermo_style
thermo_style custom step temp press pe density ke etotal lx ly lz xlo xhi ylo yhi zlo zhi vol dt time cpu tpcpu spcpu cpuremain

# run info
timestep 0.5
thermo 200

# fix

fix 1 all momentum 1000 linear 1 1 1 angular
variable T equal 300
fix 2 all nvt temp 300 370000 100.0

run 100000
Generated 0 of 1 mixed pair_coeff terms from geometric mixing rule
Unused restart file global fix info:
  fix style: npt, fix ID: 5
  update every 1 steps, delay 0 steps, check yes
Step          Temp          Press          PotEng        Density         KinEng         TotEng           Lx             Ly             Lz            Xlo            Xhi            Ylo            Yhi            Zlo            Zhi           Volume           Dt            Time           CPU           T/CPU          S/CPU         CPULeft
43810000   295.78995      2.1041147     -21833617       2.1991985      880.81196     -21832736       597.07957      597.07957      597.07957      1701.4602      2298.5398      1701.4602      2298.5398      1701.4602      2298.5398      2.1286127e+08  0.5            22110000       0              0              0              0
Averages over the last 251 of 501 rows, steps 43860000 to 43910000:
Temp Press PotEng Density KinEng TotEng Lx Ly Lz Xlo Xhi Ylo Yhi Zlo Zhi Volume Dt
277602 2921.27 -2.10802e+07 2.1992 826651 -2.02536e+07 597.08 597.08 597.08 1701.46 2298.54 1701.46 2298.54 1701.46 2298.54 2.12861e+08 0.5
Loop time of 5.63302 on 4 procs for 100000 steps with 1000 atoms

unfix 2

fix 3 all nvt temp 370000 370000 $(100.0*dt) #iso 1.0 1.0 $(1000.0*dt)
fix 3 all nvt temp 370000 370000 50

run 200000
Generated 0 of 1 mixed pair_coeff terms from geometric mixing rule
Step          Temp          Press          PotEng        Density         KinEng         TotEng           Lx             Ly             Lz            Xlo            Xhi            Ylo            Yhi            Zlo            Zhi           Volume           Dt            Time           CPU           T/CPU          S/CPU         CPULeft
43910000   354059.08      3714.1201     -20801472       2.1991985      1054327.5     -19747144       597.07957      597.07957      597.07957      1701.4602      2298.5398      1701.4602      2298.5398      1701.4602      2298.5398      2.1286127e+08  0.5            22160000       0              0              0              0
Averages over the last 501 of 1001 rows, steps 44010000 to 44110000:
Temp Press PotEng Density KinEng TotEng Lx Ly Lz Xlo Xhi Ylo Yhi Zlo Zhi Volume Dt
370202 3687.62 -2.07594e+07 2.1992 1.1024e+06 -1.96571e+07 597.08 597.08 597.08 1701.46 2298.54 1701.46 2298.54 1701.46 2298.54 2.12861e+08 0.5
Loop time of 11.4636 on 4 procs for 200000 steps with 1000 atoms

unfix 3

fix 4 all nvt temp 370000 300 100.0

run 100000
Generated 0 of 1 mixed pair_coeff terms from geometric mixing rule
Step          Temp          Press          PotEng        Density         KinEng         TotEng           Lx             Ly             Lz            Xlo            Xhi            Ylo            Yhi            Zlo            Zhi           Volume           Dt            Time           CPU           T/CPU          S/CPU         CPULeft
44110000   358442.55      3561.59       -20779369       2.1991985      1067380.7     -19711988       597.07957      597.07957      597.07957      1701.4602      2298.5398      1701.4602      2298.5398      1701.4602      2298.5398      2.1286127e+08  0.5            22260000       0              0              0              0
Averages over the last 251 of 501 rows, steps 44160000 to 44210000:
Temp Press PotEng Density KinEng TotEng Lx Ly Lz Xlo Xhi Ylo Yhi Zlo Zhi Volume Dt
93054.1 1084.28 -2.15105e+07 2.1992 277099 -2.12334e+07 597.08 597.08 597.08 1701.46 2298.54 1701.46 2298.54 1701.46 2298.54 2.12861e+08 0.5
Loop time of 5.68731 on 4 procs for 100000 steps with 1000 atoms

unfix 4

fix 5 all npt temp 300 300 $(100.0*dt) iso 1.0 1.0 $(1000.0*dt)
fix 5 all npt temp 300 300 50 iso 1.0 1.0 $(1000.0*dt)
fix 5 all npt temp 300 300 50 iso 1.0 1.0 500

run 300000
Generated 0 of 1 mixed pair_coeff terms from geometric mixing rule
Step          Temp          Press          PotEng        Density         KinEng         TotEng           Lx             Ly             Lz            Xlo            Xhi            Ylo            Yhi            Zlo            Zhi           Volume           Dt            Time           CPU           T/CPU          S/CPU         CPULeft
44210000   1378.7849      126.5555      -21786556       2.1991985      4105.786      -21782450       597.07957      597.07957      597.07957      1701.4602      2298.5398      1701.4602      2298.5398      1701.4602      2298.5398      2.1286127e+08  0.5            22310000       0              0              0              0
Averages over the last 751 of 1501 rows, steps 44360000 to 44510000:
Temp Press PotEng Density KinEng TotEng Lx Ly Lz Xlo Xhi Ylo Yhi Zlo Zhi Volume Dt
300.109 1.07249 -2.18126e+07 2.19836 893.672 -2.18118e+07 597.155 597.155 597.155 1701.42 2298.58 1701.42 2298.58 1701.42 2298.58 2.12942e+08 0.5
Loop time of 19.9131 on 4 procs for 300000 steps with 1000 atoms

# run_style
run_style verlet

# write restart
write_restart ./pgnpmf/73/equpmf63.res
System init for write_restart ...
Generated 0 of 1 mixed pair_coeff terms from geometric mixing rule
