LAMMPS (23 Jun 2022 - Update 1)
# Read restart
read_restart ./pgnpmf/73/equpmf1.res
Reading restart file ...
  restart file = 23 Jun 2022, LAMMPS = 23 Jun 2022
  restoring atom style atomic from restart
  orthogonal box = (1066.273 1066.273 1066.273) to (2933.727 2933.727 2933.727)
  restoring pair style table from restart
  1000 atoms
  read_restart CPU = 0.006 seconds

# Settings

pair_style table spline 9941

pair_coeff 1 1 ./pgnpmf/N20.txt DE_GNP 75.6
pair_coeff 2 2 ./pgnpmf/N100.txt DE_GNP 115.92
pair_coeff 1 2 ./pgnpmf/mixed_potential.txt DE_GNP 95.66

#Neigh_list Calc Frequency

neigh_modify delay 0 every 1 check yes

# Saving Frequency (50 frames)

variable ts_save equal 5000

# Dump
#dump_modify 1 first no sort id
dump 2 all cfg 50000 ./pgnpmf/73/equilibration/trajectory/dumpgen.tens_*.cfg mass type xs ys zs fx fy fz
dump_modify 2 element N20 N100

# thermo_style
thermo_style custom step temp press pe density ke etotal lx ly lz xlo xhi ylo yhi zlo zhi vol dt time cpu tpcpu spcpu cpuremain

# run info
timestep 0.5
thermo 200

# fix

fix 1 all momentum 1000 linear 1 1 1 angular
variable T equal 300
fix 2 all nvt temp 300 370000 100.0

run 100000
Generated 0 of 1 mixed pair_coeff terms from geometric mixing rule
Unused restart file global fix info:
  fix style: npt, fix ID: 5
  update every 1 steps, delay 0 steps, check yes
Step          Temp          Press          PotEng        Density         KinEng         TotEng           Lx             Ly             Lz            Xlo            Xhi            Ylo            Yhi            Zlo            Zhi           Volume           Dt            Time           CPU           T/CPU          S/CPU         CPULeft
1110000   317.71983      0.98266372    -979207.22      0.071880541    946.1154      -978261.11      1867.454       1867.454       1867.454       1066.273       2933.727       1066.273       2933.727       1066.273       2933.727       6.5125301e+09  0.5            760000         0              0              0              0
Averages over the last 251 of 501 rows, steps 1160000 to 1210000:
Temp Press PotEng Density KinEng TotEng Lx Ly Lz Xlo Xhi Ylo Yhi Zlo Zhi Volume Dt
277210 5.73923 -602608 0.0718805 825485 222877 1867.45 1867.45 1867.45 1066.27 2933.73 1066.27 2933.73 1066.27 2933.73 6.51253e+09 0.5
Loop time of 1.53847 on 4 procs for 100000 steps with 1000 atoms

unfix 2

fix 3 all nvt temp 370000 370000 $(100.0*dt) #iso 1.0 1.0 $(1000.0*dt)
fix 3 all nvt temp 370000 370000 50

run 200000
Generated 0 of 1 mixed pair_coeff terms from geometric mixing rule
Step          Temp          Press          PotEng        Density         KinEng         TotEng           Lx             Ly             Lz            Xlo            Xhi            Ylo            Yhi            Zlo            Zhi           Volume           Dt            Time           CPU           T/CPU          S/CPU         CPULeft
1210000   390317.47      8.9286077     -646188.86      0.071880541    1162298.8      516109.91      1867.454       1867.454       1867.454       1066.273       2933.727       1066.273       2933.727       1066.273       2933.727       6.5125301e+09  0.5            810000         0              0              0              0
Averages over the last 501 of 1001 rows, steps 1310000 to 1410000:
Temp Press PotEng Density KinEng TotEng Lx Ly Lz Xlo Xhi Ylo Yhi Zlo Zhi Volume Dt
369938 7.35179 -711515 0.0718805 1.10161e+06 390097 1867.45 1867.45 1867.45 1066.27 2933.73 1066.27 2933.73 1066.27 2933.73 6.51253e+09 0.5
Loop time of 3.03494 on 4 procs for 200000 steps with 1000 atoms

unfix 3

fix 4 all nvt temp 370000 300 100.0

run 100000
Generated 0 of 1 mixed pair_coeff terms from geometric mixing rule
Step          Temp          Press          PotEng        Density         KinEng         TotEng           Lx             Ly             Lz            Xlo            Xhi            Ylo            Yhi            Zlo            Zhi           Volume           Dt            Time           CPU           T/CPU          S/CPU         CPULeft
1410000   373015.96      8.3878611     -736781.34      0.071880541    1110777.8      373996.48      1867.454       1867.454       1867.454       1066.273       2933.727       1066.273       2933.727       1066.273       2933.727       6.5125301e+09  0.5            910000         0              0              0              0
Averages over the last 251 of 501 rows, steps 1460000 to 1510000:
Temp Press PotEng Density KinEng TotEng Lx Ly Lz Xlo Xhi Ylo Yhi Zlo Zhi Volume Dt
92829.6 1.15148 -761020 0.0718805 276431 -484590 1867.45 1867.45 1867.45 1066.27 2933.73 1066.27 2933.73 1066.27 2933.73 6.51253e+09 0.5
Loop time of 1.51919 on 4 procs for 100000 steps with 1000 atoms

unfix 4

fix 5 all npt temp 300 300 $(100.0*dt) iso 1.0 1.0 $(1000.0*dt)
fix 5 all npt temp 300 300 50 iso 1.0 1.0 $(1000.0*dt)
fix 5 all npt temp 300 300 50 iso 1.0 1.0 500

run 300000
Generated 0 of 1 mixed pair_coeff terms from geometric mixing rule
Step          Temp          Press          PotEng        Density         KinEng         TotEng           Lx             Ly             Lz            Xlo            Xhi            Ylo            Yhi            Zlo            Zhi           Volume           Dt            Time           CPU           T/CPU          S/CPU         CPULeft
1510000   1195.0252     -1.613736      -826534.09      0.071880541    3558.5809     -822975.5       1867.454       1867.454       1867.454       1066.273       2933.727       1066.273       2933.727       1066.273       2933.727       6.5125301e+09  0.5            960000         0              0              0              0
Averages over the last 751 of 1501 rows, steps 1660000 to 1810000:
Temp Press PotEng Density KinEng TotEng Lx Ly Lz Xlo Xhi Ylo Yhi Zlo Zhi Volume Dt
317.081 0.996973 -1.64257e+06 0.141907 944.212 -1.64162e+06 1492.21 1492.21 1492.21 1253.89 2746.11 1253.89 2746.11 1253.89 2746.11 3.33477e+09 0.5
Loop time of 7.75966 on 4 procs for 300000 steps with 1000 atoms

# run_style
run_style verlet

# write restart
write_restart ./pgnpmf/73/equpmf2.res
System init for write_restart ...
Generated 0 of 1 mixed pair_coeff terms from geometric mixing rule
