LAMMPS (23 Jun 2022 - Update 1)
# Read restart
read_restart ./pgnpmf/73/equpmf46.res
Reading restart file ...
  restart file = 23 Jun 2022, LAMMPS = 23 Jun 2022
  restoring atom style atomic from restart
  orthogonal box = (1701.5157 1701.5157 1701.5157) to (2298.4843 2298.4843 2298.4843)
  restoring pair style table from restart
  1000 atoms
  read_restart CPU = 0.007 seconds

# Settings

pair_style table spline 9941

pair_coeff 1 1 ./pgnpmf/N20.txt DE_GNP 75.6
pair_coeff 2 2 ./pgnpmf/N100.txt DE_GNP 115.92
pair_coeff 1 2 ./pgnpmf/mixed_potential.txt DE_GNP 95.66

#Neigh_list Calc Frequency

neigh_modify delay 0 every 1 check yes

# Saving Frequency (50 frames)

variable ts_save equal 5000

# Dump
#dump_modify 1 first no sort id
dump 2 all cfg 50000 ./pgnpmf/73/equilibration/trajectory/dumpgen.tens_*.cfg mass type xs ys zs fx fy fz
dump_modify 2 element N20 N100

# thermo_style
thermo_style custom step temp press pe density ke etotal lx ly lz xlo xhi ylo yhi zlo zhi vol dt time cpu tpcpu spcpu cpuremain

# run info
timestep 0.5
thermo 200

# fix

fix 1 all momentum 1000 linear 1 1 1 angular
variable T equal 300
fix 2 all nvt temp 300 370000 100.0

run 100000
Generated 0 of 1 mixed pair_coeff terms from geometric mixing rule
Unused restart file global fix info:
  fix style: npt, fix ID: 5
  update every 1 steps, delay 0 steps, check yes
Step          Temp          Press          PotEng        Density         KinEng         TotEng           Lx             Ly             Lz            Xlo            Xhi            Ylo            Yhi            Zlo            Zhi           Volume           Dt            Time           CPU           T/CPU          S/CPU         CPULeft
32610000   290.87548      6.0424775     -21895523       2.2004252      866.17752     -21894656       596.96861      596.96861      596.96861      1701.5157      2298.4843      1701.5157      2298.4843      1701.5157      2298.4843      2.1274261e+08  0.5            16510000       0              0              0              0
Averages over the last 251 of 501 rows, steps 32660000 to 32710000:
Temp Press PotEng Density KinEng TotEng Lx Ly Lz Xlo Xhi Ylo Yhi Zlo Zhi Volume Dt
277341 2963.64 -2.11156e+07 2.20043 825874 -2.02897e+07 596.969 596.969 596.969 1701.52 2298.48 1701.52 2298.48 1701.52 2298.48 2.12743e+08 0.5
Loop time of 5.84778 on 4 procs for 100000 steps with 1000 atoms

unfix 2

fix 3 all nvt temp 370000 370000 $(100.0*dt) #iso 1.0 1.0 $(1000.0*dt)
fix 3 all nvt temp 370000 370000 50

run 200000
Generated 0 of 1 mixed pair_coeff terms from geometric mixing rule
Step          Temp          Press          PotEng        Density         KinEng         TotEng           Lx             Ly             Lz            Xlo            Xhi            Ylo            Yhi            Zlo            Zhi           Volume           Dt            Time           CPU           T/CPU          S/CPU         CPULeft
32710000   372223.28      3636.6905     -20892393       2.2004252      1108417.4     -19783975       596.96861      596.96861      596.96861      1701.5157      2298.4843      1701.5157      2298.4843      1701.5157      2298.4843      2.1274261e+08  0.5            16560000       0              0              0              0
Averages over the last 501 of 1001 rows, steps 32810000 to 32910000:
Temp Press PotEng Density KinEng TotEng Lx Ly Lz Xlo Xhi Ylo Yhi Zlo Zhi Volume Dt
369939 3629.45 -2.07784e+07 2.20043 1.10161e+06 -1.96768e+07 596.969 596.969 596.969 1701.52 2298.48 1701.52 2298.48 1701.52 2298.48 2.12743e+08 0.5
Loop time of 12.0382 on 4 procs for 200000 steps with 1000 atoms

unfix 3

fix 4 all nvt temp 370000 300 100.0

run 100000
Generated 0 of 1 mixed pair_coeff terms from geometric mixing rule
Step          Temp          Press          PotEng        Density         KinEng         TotEng           Lx             Ly             Lz            Xlo            Xhi            Ylo            Yhi            Zlo            Zhi           Volume           Dt            Time           CPU           T/CPU          S/CPU         CPULeft
32910000   375478.08      3567.054      -20816200       2.2004252      1118109.6     -19698090       596.96861      596.96861      596.96861      1701.5157      2298.4843      1701.5157      2298.4843      1701.5157      2298.4843      2.1274261e+08  0.5            16660000       0              0              0              0
Averages over the last 251 of 501 rows, steps 32960000 to 33010000:
Temp Press PotEng Density KinEng TotEng Lx Ly Lz Xlo Xhi Ylo Yhi Zlo Zhi Volume Dt
93009.5 1028.26 -2.15384e+07 2.20043 276966 -2.12614e+07 596.969 596.969 596.969 1701.52 2298.48 1701.52 2298.48 1701.52 2298.48 2.12743e+08 0.5
Loop time of 5.9701 on 4 procs for 100000 steps with 1000 atoms

unfix 4

fix 5 all npt temp 300 300 $(100.0*dt) iso 1.0 1.0 $(1000.0*dt)
fix 5 all npt temp 300 300 50 iso 1.0 1.0 $(1000.0*dt)
fix 5 all npt temp 300 300 50 iso 1.0 1.0 500

run 300000
Generated 0 of 1 mixed pair_coeff terms from geometric mixing rule
Step          Temp          Press          PotEng        Density         KinEng         TotEng           Lx             Ly             Lz            Xlo            Xhi            Ylo            Yhi            Zlo            Zhi           Volume           Dt            Time           CPU           T/CPU          S/CPU         CPULeft
33010000   1393.8955      121.60894     -21788905       2.2004252      4150.7827     -21784754       596.96861      596.96861      596.96861      1701.5157      2298.4843      1701.5157      2298.4843      1701.5157      2298.4843      2.1274261e+08  0.5            16710000       0              0              0              0
Averages over the last 751 of 1501 rows, steps 33160000 to 33310000:
Temp Press PotEng Density KinEng TotEng Lx Ly Lz Xlo Xhi Ylo Yhi Zlo Zhi Volume Dt
300.2 0.978613 -2.18367e+07 2.2018 893.944 -2.18358e+07 596.845 596.845 596.845 1701.58 2298.42 1701.58 2298.42 1701.58 2298.42 2.1261e+08 0.5
Loop time of 21.0683 on 4 procs for 300000 steps with 1000 atoms

# run_style
run_style verlet

# write restart
write_restart ./pgnpmf/73/equpmf47.res
System init for write_restart ...
Generated 0 of 1 mixed pair_coeff terms from geometric mixing rule
