LAMMPS (23 Jun 2022 - Update 1)
# Read restart
read_restart ./pgnpmf/73/equpmf15.res
Reading restart file ...
  restart file = 23 Jun 2022, LAMMPS = 23 Jun 2022
  restoring atom style atomic from restart
  orthogonal box = (1634.5739 1634.5739 1634.5739) to (2365.4261 2365.4261 2365.4261)
  restoring pair style table from restart
  1000 atoms
  read_restart CPU = 0.007 seconds

# Settings

pair_style table spline 9941

pair_coeff 1 1 ./pgnpmf/N20.txt DE_GNP 75.6
pair_coeff 2 2 ./pgnpmf/N100.txt DE_GNP 115.92
pair_coeff 1 2 ./pgnpmf/mixed_potential.txt DE_GNP 95.66

#Neigh_list Calc Frequency

neigh_modify delay 0 every 1 check yes

# Saving Frequency (50 frames)

variable ts_save equal 5000

# Dump
#dump_modify 1 first no sort id
dump 2 all cfg 50000 ./pgnpmf/73/equilibration/trajectory/dumpgen.tens_*.cfg mass type xs ys zs fx fy fz
dump_modify 2 element N20 N100

# thermo_style
thermo_style custom step temp press pe density ke etotal lx ly lz xlo xhi ylo yhi zlo zhi vol dt time cpu tpcpu spcpu cpuremain

# run info
timestep 0.5
thermo 200

# fix

fix 1 all momentum 1000 linear 1 1 1 angular
variable T equal 300
fix 2 all nvt temp 300 370000 100.0

run 100000
Generated 0 of 1 mixed pair_coeff terms from geometric mixing rule
Unused restart file global fix info:
  fix style: npt, fix ID: 5
  update every 1 steps, delay 0 steps, check yes
Step          Temp          Press          PotEng        Density         KinEng         TotEng           Lx             Ly             Lz            Xlo            Xhi            Ylo            Yhi            Zlo            Zhi           Volume           Dt            Time           CPU           T/CPU          S/CPU         CPULeft
10910000   311.43879      2.020109      -17309955       1.1991469      927.41153     -17309028       730.85222      730.85222      730.85222      1634.5739      2365.4261      1634.5739      2365.4261      1634.5739      2365.4261      3.9038103e+08  0.5            5660000        0              0              0              0
Averages over the last 251 of 501 rows, steps 10960000 to 11010000:
Temp Press PotEng Density KinEng TotEng Lx Ly Lz Xlo Xhi Ylo Yhi Zlo Zhi Volume Dt
277421 172.855 -1.71918e+07 1.19915 826113 -1.63657e+07 730.852 730.852 730.852 1634.57 2365.43 1634.57 2365.43 1634.57 2365.43 3.90381e+08 0.5
Loop time of 4.66708 on 4 procs for 100000 steps with 1000 atoms

unfix 2

fix 3 all nvt temp 370000 370000 $(100.0*dt) #iso 1.0 1.0 $(1000.0*dt)
fix 3 all nvt temp 370000 370000 50

run 200000
Generated 0 of 1 mixed pair_coeff terms from geometric mixing rule
Step          Temp          Press          PotEng        Density         KinEng         TotEng           Lx             Ly             Lz            Xlo            Xhi            Ylo            Yhi            Zlo            Zhi           Volume           Dt            Time           CPU           T/CPU          S/CPU         CPULeft
11010000   367922.74      183.8657      -16905636       1.1991469      1095611.1     -15810025       730.85222      730.85222      730.85222      1634.5739      2365.4261      1634.5739      2365.4261      1634.5739      2365.4261      3.9038103e+08  0.5            5710000        0              0              0              0
Averages over the last 501 of 1001 rows, steps 11110000 to 11210000:
Temp Press PotEng Density KinEng TotEng Lx Ly Lz Xlo Xhi Ylo Yhi Zlo Zhi Volume Dt
369975 117.185 -1.59979e+07 1.19915 1.10172e+06 -1.48961e+07 730.852 730.852 730.852 1634.57 2365.43 1634.57 2365.43 1634.57 2365.43 3.90381e+08 0.5
Loop time of 8.83037 on 4 procs for 200000 steps with 1000 atoms

unfix 3

fix 4 all nvt temp 370000 300 100.0

run 100000
Generated 0 of 1 mixed pair_coeff terms from geometric mixing rule
Step          Temp          Press          PotEng        Density         KinEng         TotEng           Lx             Ly             Lz            Xlo            Xhi            Ylo            Yhi            Zlo            Zhi           Volume           Dt            Time           CPU           T/CPU          S/CPU         CPULeft
11210000   358038.15      108.67569     -15842286       1.1991469      1066176.5     -14776110       730.85222      730.85222      730.85222      1634.5739      2365.4261      1634.5739      2365.4261      1634.5739      2365.4261      3.9038103e+08  0.5            5810000        0              0              0              0
Averages over the last 251 of 501 rows, steps 11260000 to 11310000:
Temp Press PotEng Density KinEng TotEng Lx Ly Lz Xlo Xhi Ylo Yhi Zlo Zhi Volume Dt
93187.7 -376.152 -1.65863e+07 1.19915 277497 -1.63088e+07 730.852 730.852 730.852 1634.57 2365.43 1634.57 2365.43 1634.57 2365.43 3.90381e+08 0.5
Loop time of 4.33508 on 4 procs for 100000 steps with 1000 atoms

unfix 4

fix 5 all npt temp 300 300 $(100.0*dt) iso 1.0 1.0 $(1000.0*dt)
fix 5 all npt temp 300 300 50 iso 1.0 1.0 $(1000.0*dt)
fix 5 all npt temp 300 300 50 iso 1.0 1.0 500

run 300000
Generated 0 of 1 mixed pair_coeff terms from geometric mixing rule
Step          Temp          Press          PotEng        Density         KinEng         TotEng           Lx             Ly             Lz            Xlo            Xhi            Ylo            Yhi            Zlo            Zhi           Volume           Dt            Time           CPU           T/CPU          S/CPU         CPULeft
11310000   1371.6121     -540.1653      -16991926       1.1991469      4084.4265     -16987842       730.85222      730.85222      730.85222      1634.5739      2365.4261      1634.5739      2365.4261      1634.5739      2365.4261      3.9038103e+08  0.5            5860000        0              0              0              0
Averages over the last 751 of 1501 rows, steps 11460000 to 11610000:
Temp Press PotEng Density KinEng TotEng Lx Ly Lz Xlo Xhi Ylo Yhi Zlo Zhi Volume Dt
313.885 0.822547 -1.77964e+07 1.29856 934.696 -1.77954e+07 711.711 711.711 711.711 1644.14 2355.86 1644.14 2355.86 1644.14 2355.86 3.60509e+08 0.5
Loop time of 16.3223 on 4 procs for 300000 steps with 1000 atoms

# run_style
run_style verlet

# write restart
write_restart ./pgnpmf/73/equpmf16.res
System init for write_restart ...
Generated 0 of 1 mixed pair_coeff terms from geometric mixing rule
