LAMMPS (23 Jun 2022 - Update 1)
# Read restart
read_restart ./pgnpmf/73/equpmf9.res
Reading restart file ...
  restart file = 23 Jun 2022, LAMMPS = 23 Jun 2022
  restoring atom style atomic from restart
  orthogonal box = (1562.5489 1562.5489 1562.5489) to (2437.4511 2437.4511 2437.4511)
  restoring pair style table from restart
  1000 atoms
  read_restart CPU = 0.009 seconds

# Settings

pair_style table spline 9941

pair_coeff 1 1 ./pgnpmf/N20.txt DE_GNP 75.6
pair_coeff 2 2 ./pgnpmf/N100.txt DE_GNP 115.92
pair_coeff 1 2 ./pgnpmf/mixed_potential.txt DE_GNP 95.66

#Neigh_list Calc Frequency

neigh_modify delay 0 every 1 check yes

# Saving Frequency (50 frames)

variable ts_save equal 5000

# Dump
#dump_modify 1 first no sort id
dump 2 all cfg 50000 ./pgnpmf/73/equilibration/trajectory/dumpgen.tens_*.cfg mass type xs ys zs fx fy fz
dump_modify 2 element N20 N100

# thermo_style
thermo_style custom step temp press pe density ke etotal lx ly lz xlo xhi ylo yhi zlo zhi vol dt time cpu tpcpu spcpu cpuremain

# run info
timestep 0.5
thermo 200

# fix

fix 1 all momentum 1000 linear 1 1 1 angular
variable T equal 300
fix 2 all nvt temp 300 370000 100.0

run 100000
Generated 0 of 1 mixed pair_coeff terms from geometric mixing rule
Unused restart file global fix info:
  fix style: npt, fix ID: 5
  update every 1 steps, delay 0 steps, check yes
Step          Temp          Press          PotEng        Density         KinEng         TotEng           Lx             Ly             Lz            Xlo            Xhi            Ylo            Yhi            Zlo            Zhi           Volume           Dt            Time           CPU           T/CPU          S/CPU         CPULeft
6710000   312.50329     -0.42401028    -13930640       0.69900871     930.58143     -13929709       874.90218      874.90218      874.90218      1562.5489      2437.4511      1562.5489      2437.4511      1562.5489      2437.4511      6.6969721e+08  0.5            3560000        0              0              0              0
Averages over the last 251 of 501 rows, steps 6760000 to 6810000:
Temp Press PotEng Density KinEng TotEng Lx Ly Lz Xlo Xhi Ylo Yhi Zlo Zhi Volume Dt
277371 43.6455 -1.38423e+07 0.699009 825963 -1.30164e+07 874.902 874.902 874.902 1562.55 2437.45 1562.55 2437.45 1562.55 2437.45 6.69697e+08 0.5
Loop time of 3.63619 on 4 procs for 100000 steps with 1000 atoms

unfix 2

fix 3 all nvt temp 370000 370000 $(100.0*dt) #iso 1.0 1.0 $(1000.0*dt)
fix 3 all nvt temp 370000 370000 50

run 200000
Generated 0 of 1 mixed pair_coeff terms from geometric mixing rule
Step          Temp          Press          PotEng        Density         KinEng         TotEng           Lx             Ly             Lz            Xlo            Xhi            Ylo            Yhi            Zlo            Zhi           Volume           Dt            Time           CPU           T/CPU          S/CPU         CPULeft
6810000   365218.56      37.802079     -13473623       0.69900871     1087558.5     -12386064       874.90218      874.90218      874.90218      1562.5489      2437.4511      1562.5489      2437.4511      1562.5489      2437.4511      6.6969721e+08  0.5            3610000        0              0              0              0
Averages over the last 501 of 1001 rows, steps 6910000 to 7010000:
Temp Press PotEng Density KinEng TotEng Lx Ly Lz Xlo Xhi Ylo Yhi Zlo Zhi Volume Dt
370281 40.5943 -1.27483e+07 0.699009 1.10263e+06 -1.16457e+07 874.902 874.902 874.902 1562.55 2437.45 1562.55 2437.45 1562.55 2437.45 6.69697e+08 0.5
Loop time of 7.31946 on 4 procs for 200000 steps with 1000 atoms

unfix 3

fix 4 all nvt temp 370000 300 100.0

run 100000
Generated 0 of 1 mixed pair_coeff terms from geometric mixing rule
Step          Temp          Press          PotEng        Density         KinEng         TotEng           Lx             Ly             Lz            Xlo            Xhi            Ylo            Yhi            Zlo            Zhi           Volume           Dt            Time           CPU           T/CPU          S/CPU         CPULeft
7010000   374104.83      71.53227      -12759741       0.69900871     1114020.3     -11645720       874.90218      874.90218      874.90218      1562.5489      2437.4511      1562.5489      2437.4511      1562.5489      2437.4511      6.6969721e+08  0.5            3710000        0              0              0              0
Averages over the last 251 of 501 rows, steps 7060000 to 7110000:
Temp Press PotEng Density KinEng TotEng Lx Ly Lz Xlo Xhi Ylo Yhi Zlo Zhi Volume Dt
93094 -118.177 -1.35819e+07 0.699009 277218 -1.33047e+07 874.902 874.902 874.902 1562.55 2437.45 1562.55 2437.45 1562.55 2437.45 6.69697e+08 0.5
Loop time of 3.57586 on 4 procs for 100000 steps with 1000 atoms

unfix 4

fix 5 all npt temp 300 300 $(100.0*dt) iso 1.0 1.0 $(1000.0*dt)
fix 5 all npt temp 300 300 50 iso 1.0 1.0 $(1000.0*dt)
fix 5 all npt temp 300 300 50 iso 1.0 1.0 500

run 300000
Generated 0 of 1 mixed pair_coeff terms from geometric mixing rule
Step          Temp          Press          PotEng        Density         KinEng         TotEng           Lx             Ly             Lz            Xlo            Xhi            Ylo            Yhi            Zlo            Zhi           Volume           Dt            Time           CPU           T/CPU          S/CPU         CPULeft
7110000   1379.5915     -192.62295     -14077121       0.69900871     4108.1879     -14073012       874.90218      874.90218      874.90218      1562.5489      2437.4511      1562.5489      2437.4511      1562.5489      2437.4511      6.6969721e+08  0.5            3760000        0              0              0              0
Averages over the last 751 of 1501 rows, steps 7260000 to 7410000:
Temp Press PotEng Density KinEng TotEng Lx Ly Lz Xlo Xhi Ylo Yhi Zlo Zhi Volume Dt
314.36 1.05525 -1.46942e+07 0.761048 936.11 -1.46933e+07 850.466 850.466 850.466 1574.77 2425.23 1574.77 2425.23 1574.77 2425.23 6.1515e+08 0.5
Loop time of 14.048 on 4 procs for 300000 steps with 1000 atoms

# run_style
run_style verlet

# write restart
write_restart ./pgnpmf/73/equpmf10.res
System init for write_restart ...
Generated 0 of 1 mixed pair_coeff terms from geometric mixing rule
