LAMMPS (23 Jun 2022 - Update 1)
# Read restart
read_restart ./pgnpmf/73/equpmf38.res
Reading restart file ...
  restart file = 23 Jun 2022, LAMMPS = 23 Jun 2022
  restoring atom style atomic from restart
  orthogonal box = (1701.485 1701.485 1701.485) to (2298.515 2298.515 2298.515)
  restoring pair style table from restart
  1000 atoms
  read_restart CPU = 0.007 seconds

# Settings

pair_style table spline 9941

pair_coeff 1 1 ./pgnpmf/N20.txt DE_GNP 75.6
pair_coeff 2 2 ./pgnpmf/N100.txt DE_GNP 115.92
pair_coeff 1 2 ./pgnpmf/mixed_potential.txt DE_GNP 95.66

#Neigh_list Calc Frequency

neigh_modify delay 0 every 1 check yes

# Saving Frequency (50 frames)

variable ts_save equal 5000

# Dump
#dump_modify 1 first no sort id
dump 2 all cfg 50000 ./pgnpmf/73/equilibration/trajectory/dumpgen.tens_*.cfg mass type xs ys zs fx fy fz
dump_modify 2 element N20 N100

# thermo_style
thermo_style custom step temp press pe density ke etotal lx ly lz xlo xhi ylo yhi zlo zhi vol dt time cpu tpcpu spcpu cpuremain

# run info
timestep 0.5
thermo 200

# fix

fix 1 all momentum 1000 linear 1 1 1 angular
variable T equal 300
fix 2 all nvt temp 300 370000 100.0

run 100000
Generated 0 of 1 mixed pair_coeff terms from geometric mixing rule
Unused restart file global fix info:
  fix style: npt, fix ID: 5
  update every 1 steps, delay 0 steps, check yes
Step          Temp          Press          PotEng        Density         KinEng         TotEng           Lx             Ly             Lz            Xlo            Xhi            Ylo            Yhi            Zlo            Zhi           Volume           Dt            Time           CPU           T/CPU          S/CPU         CPULeft
27010000   293.5691      -3.6271651     -21900176       2.199746       874.19864     -21899302       597.03004      597.03004      597.03004      1701.485       2298.515       1701.485       2298.515       1701.485       2298.515       2.1280829e+08  0.5            13710000       0              0              0              0
Averages over the last 251 of 501 rows, steps 27060000 to 27110000:
Temp Press PotEng Density KinEng TotEng Lx Ly Lz Xlo Xhi Ylo Yhi Zlo Zhi Volume Dt
277788 2996.38 -2.10954e+07 2.19975 827205 -2.02682e+07 597.03 597.03 597.03 1701.48 2298.51 1701.48 2298.51 1701.48 2298.51 2.12808e+08 0.5
Loop time of 5.69444 on 4 procs for 100000 steps with 1000 atoms

unfix 2

fix 3 all nvt temp 370000 370000 $(100.0*dt) #iso 1.0 1.0 $(1000.0*dt)
fix 3 all nvt temp 370000 370000 50

run 200000
Generated 0 of 1 mixed pair_coeff terms from geometric mixing rule
Step          Temp          Press          PotEng        Density         KinEng         TotEng           Lx             Ly             Lz            Xlo            Xhi            Ylo            Yhi            Zlo            Zhi           Volume           Dt            Time           CPU           T/CPU          S/CPU         CPULeft
27110000   381402.59      3829.4401     -20809190       2.199746       1135751.8     -19673438       597.03004      597.03004      597.03004      1701.485       2298.515       1701.485       2298.515       1701.485       2298.515       2.1280829e+08  0.5            13760000       0              0              0              0
Averages over the last 501 of 1001 rows, steps 27210000 to 27310000:
Temp Press PotEng Density KinEng TotEng Lx Ly Lz Xlo Xhi Ylo Yhi Zlo Zhi Volume Dt
369854 3664.54 -2.08117e+07 2.19975 1.10136e+06 -1.97104e+07 597.03 597.03 597.03 1701.48 2298.51 1701.48 2298.51 1701.48 2298.51 2.12808e+08 0.5
Loop time of 11.2797 on 4 procs for 200000 steps with 1000 atoms

unfix 3

fix 4 all nvt temp 370000 300 100.0

run 100000
Generated 0 of 1 mixed pair_coeff terms from geometric mixing rule
Step          Temp          Press          PotEng        Density         KinEng         TotEng           Lx             Ly             Lz            Xlo            Xhi            Ylo            Yhi            Zlo            Zhi           Volume           Dt            Time           CPU           T/CPU          S/CPU         CPULeft
27310000   351329.07      3519.5523     -20780936       2.199746       1046198       -19734738       597.03004      597.03004      597.03004      1701.485       2298.515       1701.485       2298.515       1701.485       2298.515       2.1280829e+08  0.5            13860000       0              0              0              0
Averages over the last 251 of 501 rows, steps 27360000 to 27410000:
Temp Press PotEng Density KinEng TotEng Lx Ly Lz Xlo Xhi Ylo Yhi Zlo Zhi Volume Dt
92976.7 1020.18 -2.15646e+07 2.19975 276869 -2.12877e+07 597.03 597.03 597.03 1701.48 2298.51 1701.48 2298.51 1701.48 2298.51 2.12808e+08 0.5
Loop time of 5.64067 on 4 procs for 100000 steps with 1000 atoms

unfix 4

fix 5 all npt temp 300 300 $(100.0*dt) iso 1.0 1.0 $(1000.0*dt)
fix 5 all npt temp 300 300 50 iso 1.0 1.0 $(1000.0*dt)
fix 5 all npt temp 300 300 50 iso 1.0 1.0 500

run 300000
Generated 0 of 1 mixed pair_coeff terms from geometric mixing rule
Step          Temp          Press          PotEng        Density         KinEng         TotEng           Lx             Ly             Lz            Xlo            Xhi            Ylo            Yhi            Zlo            Zhi           Volume           Dt            Time           CPU           T/CPU          S/CPU         CPULeft
27410000   1389.844       104.3667      -21799963       2.199746       4138.7182     -21795824       597.03004      597.03004      597.03004      1701.485       2298.515       1701.485       2298.515       1701.485       2298.515       2.1280829e+08  0.5            13910000       0              0              0              0
Averages over the last 751 of 1501 rows, steps 27560000 to 27710000:
Temp Press PotEng Density KinEng TotEng Lx Ly Lz Xlo Xhi Ylo Yhi Zlo Zhi Volume Dt
300.048 0.966345 -2.1855e+07 2.20089 893.491 -2.18541e+07 596.927 596.927 596.927 1701.54 2298.46 1701.54 2298.46 1701.54 2298.46 2.12698e+08 0.5
Loop time of 19.8054 on 4 procs for 300000 steps with 1000 atoms

# run_style
run_style verlet

# write restart
write_restart ./pgnpmf/73/equpmf39.res
System init for write_restart ...
Generated 0 of 1 mixed pair_coeff terms from geometric mixing rule
