LAMMPS (23 Jun 2022 - Update 1)
# Read restart
read_restart ./pgnpmf/73/equpmf3.res
Reading restart file ...
  restart file = 23 Jun 2022, LAMMPS = 23 Jun 2022
  restoring atom style atomic from restart
  orthogonal box = (1376.7093 1376.7093 1376.7093) to (2623.2907 2623.2907 2623.2907)
  restoring pair style table from restart
  1000 atoms
  read_restart CPU = 0.007 seconds

# Settings

pair_style table spline 9941

pair_coeff 1 1 ./pgnpmf/N20.txt DE_GNP 75.6
pair_coeff 2 2 ./pgnpmf/N100.txt DE_GNP 115.92
pair_coeff 1 2 ./pgnpmf/mixed_potential.txt DE_GNP 95.66

#Neigh_list Calc Frequency

neigh_modify delay 0 every 1 check yes

# Saving Frequency (50 frames)

variable ts_save equal 5000

# Dump
#dump_modify 1 first no sort id
dump 2 all cfg 50000 ./pgnpmf/73/equilibration/trajectory/dumpgen.tens_*.cfg mass type xs ys zs fx fy fz
dump_modify 2 element N20 N100

# thermo_style
thermo_style custom step temp press pe density ke etotal lx ly lz xlo xhi ylo yhi zlo zhi vol dt time cpu tpcpu spcpu cpuremain

# run info
timestep 0.5
thermo 200

# fix

fix 1 all momentum 1000 linear 1 1 1 angular
variable T equal 300
fix 2 all nvt temp 300 370000 100.0

run 100000
Generated 0 of 1 mixed pair_coeff terms from geometric mixing rule
Unused restart file global fix info:
  fix style: npt, fix ID: 5
  update every 1 steps, delay 0 steps, check yes
Step          Temp          Press          PotEng        Density         KinEng         TotEng           Lx             Ly             Lz            Xlo            Xhi            Ylo            Yhi            Zlo            Zhi           Volume           Dt            Time           CPU           T/CPU          S/CPU         CPULeft
2510000   312.69699      1.0518158     -3169120.5      0.24165682     931.15823     -3168189.3      1246.5815      1246.5815      1246.5815      1376.7093      2623.2907      1376.7093      2623.2907      1376.7093      2623.2907      1.9371445e+09  0.5            1460000        0              0              0              0
Averages over the last 251 of 501 rows, steps 2560000 to 2610000:
Temp Press PotEng Density KinEng TotEng Lx Ly Lz Xlo Xhi Ylo Yhi Zlo Zhi Volume Dt
277341 15.0564 -2.95569e+06 0.241657 825874 -2.12981e+06 1246.58 1246.58 1246.58 1376.71 2623.29 1376.71 2623.29 1376.71 2623.29 1.93714e+09 0.5
Loop time of 2.11173 on 4 procs for 100000 steps with 1000 atoms

unfix 2

fix 3 all nvt temp 370000 370000 $(100.0*dt) #iso 1.0 1.0 $(1000.0*dt)
fix 3 all nvt temp 370000 370000 50

run 200000
Generated 0 of 1 mixed pair_coeff terms from geometric mixing rule
Step          Temp          Press          PotEng        Density         KinEng         TotEng           Lx             Ly             Lz            Xlo            Xhi            Ylo            Yhi            Zlo            Zhi           Volume           Dt            Time           CPU           T/CPU          S/CPU         CPULeft
2610000   353525.43      30.173773     -2848154.6      0.24165682     1052738.4     -1795416.2      1246.5815      1246.5815      1246.5815      1376.7093      2623.2907      1376.7093      2623.2907      1376.7093      2623.2907      1.9371445e+09  0.5            1510000        0              0              0              0
Averages over the last 501 of 1001 rows, steps 2710000 to 2810000:
Temp Press PotEng Density KinEng TotEng Lx Ly Lz Xlo Xhi Ylo Yhi Zlo Zhi Volume Dt
369760 20.9442 -3.23929e+06 0.241657 1.10108e+06 -2.1382e+06 1246.58 1246.58 1246.58 1376.71 2623.29 1376.71 2623.29 1376.71 2623.29 1.93714e+09 0.5
Loop time of 4.07696 on 4 procs for 200000 steps with 1000 atoms

unfix 3

fix 4 all nvt temp 370000 300 100.0

run 100000
Generated 0 of 1 mixed pair_coeff terms from geometric mixing rule
Step          Temp          Press          PotEng        Density         KinEng         TotEng           Lx             Ly             Lz            Xlo            Xhi            Ylo            Yhi            Zlo            Zhi           Volume           Dt            Time           CPU           T/CPU          S/CPU         CPULeft
2810000   367765.25      21.515265     -3330731.6      0.24165682     1095142.1     -2235589.5      1246.5815      1246.5815      1246.5815      1376.7093      2623.2907      1376.7093      2623.2907      1376.7093      2623.2907      1.9371445e+09  0.5            1610000        0              0              0              0
Averages over the last 251 of 501 rows, steps 2860000 to 2910000:
Temp Press PotEng Density KinEng TotEng Lx Ly Lz Xlo Xhi Ylo Yhi Zlo Zhi Volume Dt
92972.8 -10.9021 -3.81267e+06 0.241657 276857 -3.53581e+06 1246.58 1246.58 1246.58 1376.71 2623.29 1376.71 2623.29 1376.71 2623.29 1.93714e+09 0.5
Loop time of 2.0994 on 4 procs for 100000 steps with 1000 atoms

unfix 4

fix 5 all npt temp 300 300 $(100.0*dt) iso 1.0 1.0 $(1000.0*dt)
fix 5 all npt temp 300 300 50 iso 1.0 1.0 $(1000.0*dt)
fix 5 all npt temp 300 300 50 iso 1.0 1.0 500

run 300000
Generated 0 of 1 mixed pair_coeff terms from geometric mixing rule
Step          Temp          Press          PotEng        Density         KinEng         TotEng           Lx             Ly             Lz            Xlo            Xhi            Ylo            Yhi            Zlo            Zhi           Volume           Dt            Time           CPU           T/CPU          S/CPU         CPULeft
2910000   1334.7485     -27.081766     -4056189.9      0.24165682     3974.6531     -4052215.2      1246.5815      1246.5815      1246.5815      1376.7093      2623.2907      1376.7093      2623.2907      1376.7093      2623.2907      1.9371445e+09  0.5            1660000        0              0              0              0
Averages over the last 751 of 1501 rows, steps 3060000 to 3210000:
Temp Press PotEng Density KinEng TotEng Lx Ly Lz Xlo Xhi Ylo Yhi Zlo Zhi Volume Dt
314.095 0.987489 -4.72762e+06 0.304236 935.32 -4.72669e+06 1154.69 1154.69 1154.69 1422.65 2577.35 1422.65 2577.35 1422.65 2577.35 1.54001e+09 0.5
Loop time of 9.48884 on 4 procs for 300000 steps with 1000 atoms

# run_style
run_style verlet

# write restart
write_restart ./pgnpmf/73/equpmf4.res
System init for write_restart ...
Generated 0 of 1 mixed pair_coeff terms from geometric mixing rule
