LAMMPS (23 Jun 2022 - Update 1)
# Read restart
read_restart ./pgnpmf/91/equpmf19.res
Reading restart file ...
  restart file = 23 Jun 2022, LAMMPS = 23 Jun 2022
  restoring atom style atomic from restart
  orthogonal box = (1612.6964 1612.6964 1612.6964) to (2387.3036 2387.3036 2387.3036)
  restoring pair style table from restart
  1000 atoms
  read_restart CPU = 0.003 seconds

# Settings

pair_style table spline 9941

pair_coeff 1 1 ./pgnpmf/N20.txt DE_GNP 75.6
pair_coeff 2 2 ./pgnpmf/N100.txt DE_GNP 115.92
pair_coeff 1 2 ./pgnpmf/mixed_potential.txt DE_GNP 95.66

#Neigh_list Calc Frequency

neigh_modify delay 0 every 1 check yes

# Saving Frequency (50 frames)

variable ts_save equal 5000

variable nts equal 5000/0.25
variable medium equal 20000*3
variable long equal 20000*5

# Dump
#dump_modify 1 first no sort id
dump 2 all cfg 50000 ./pgnpmf/91/equilibration/trajectory/dumpequ.tens_*.cfg mass type xs ys zs fx fy fz
dump_modify 2 element N20 N100

# thermo_style
thermo_style custom step temp press pe density ke etotal lx ly lz xlo xhi ylo yhi zlo zhi vol dt time cpu tpcpu spcpu cpuremain

# run info
timestep 0.25
thermo 5000

# fix

fix 1 all momentum 1000 linear 1 1 1 angular
variable T equal 300
fix 2 all nvt temp 300 370000 100.0

run 20000
Generated 0 of 1 mixed pair_coeff terms from geometric mixing rule
Unused restart file global fix info:
  fix style: npt, fix ID: 5
  update every 1 steps, delay 0 steps, check yes
Step          Temp          Press          PotEng        Density         KinEng         TotEng           Lx             Ly             Lz            Xlo            Xhi            Ylo            Yhi            Zlo            Zhi           Volume           Dt            Time           CPU           T/CPU          S/CPU         CPULeft
3860000   331.11569      2.3390143     -3204521.6      0.86414796     986.00599     -3203535.6      774.6073       774.6073       774.6073       1612.6964      2387.3036      1612.6964      2387.3036      1612.6964      2387.3036      4.6477713e+08  0.25           1010000        0              0              0              0
Loop time of 0.915396 on 4 procs for 20000 steps with 1000 atoms

unfix 2

fix 3 all nvt temp 370000 370000 $(100.0*dt) #iso 1.0 1.0 $(1000.0*dt)
fix 3 all nvt temp 370000 370000 25

run 100000
Generated 0 of 1 mixed pair_coeff terms from geometric mixing rule
Step          Temp          Press          PotEng        Density         KinEng         TotEng           Lx             Ly             Lz            Xlo            Xhi            Ylo            Yhi            Zlo            Zhi           Volume           Dt            Time           CPU           T/CPU          S/CPU         CPULeft
3880000   371340.76      235.62267     -3085421        0.86414796     1105789.4     -1979631.6      774.6073       774.6073       774.6073       1612.6964      2387.3036      1612.6964      2387.3036      1612.6964      2387.3036      4.6477713e+08  0.25           1015000        0              0              0              0
Averages over the last 11 of 21 rows, steps 3930000 to 3980000:
Temp Press PotEng Density KinEng TotEng Lx Ly Lz Xlo Xhi Ylo Yhi Zlo Zhi Volume Dt
373323 102.846 -3.12575e+06 0.864148 1.11169e+06 -2.01406e+06 774.607 774.607 774.607 1612.7 2387.3 1612.7 2387.3 1612.7 2387.3 4.64777e+08 0.25
Loop time of 4.65536 on 4 procs for 100000 steps with 1000 atoms

unfix 3

fix 4 all nvt temp 370000 300 100.0

run 20000
Generated 0 of 1 mixed pair_coeff terms from geometric mixing rule
Step          Temp          Press          PotEng        Density         KinEng         TotEng           Lx             Ly             Lz            Xlo            Xhi            Ylo            Yhi            Zlo            Zhi           Volume           Dt            Time           CPU           T/CPU          S/CPU         CPULeft
3980000   377203.04      101.42994     -3105000.1      0.86414796     1123246.2     -1981753.9      774.6073       774.6073       774.6073       1612.6964      2387.3036      1612.6964      2387.3036      1612.6964      2387.3036      4.6477713e+08  0.25           1040000        0              0              0              0
Loop time of 0.950178 on 4 procs for 20000 steps with 1000 atoms

unfix 4

fix 5 all npt temp 300 300 $(100.0*dt) iso 1.0 1.0 $(1000.0*dt)
fix 5 all npt temp 300 300 25 iso 1.0 1.0 $(1000.0*dt)
fix 5 all npt temp 300 300 25 iso 1.0 1.0 250

run 60000
Generated 0 of 1 mixed pair_coeff terms from geometric mixing rule
Step          Temp          Press          PotEng        Density         KinEng         TotEng           Lx             Ly             Lz            Xlo            Xhi            Ylo            Yhi            Zlo            Zhi           Volume           Dt            Time           CPU           T/CPU          S/CPU         CPULeft
4000000   8185.215      -159.82525     -3223364.3      0.86414796     24374.173     -3198990.2      774.6073       774.6073       774.6073       1612.6964      2387.3036      1612.6964      2387.3036      1612.6964      2387.3036      4.6477713e+08  0.25           1045000        0              0              0              0
Averages over the last 7 of 13 rows, steps 4030000 to 4060000:
Temp Press PotEng Density KinEng TotEng Lx Ly Lz Xlo Xhi Ylo Yhi Zlo Zhi Volume Dt
333.637 1.67242 -3.54232e+06 0.956465 993.514 -3.54133e+06 748.856 748.856 748.856 1625.57 2374.43 1625.57 2374.43 1625.57 2374.43 4.19963e+08 0.25
Loop time of 3.68416 on 4 procs for 60000 steps with 1000 atoms

# run_style
run_style verlet

# write restart
write_restart ./pgnpmf/91/equpmf20.res
System init for write_restart ...
Generated 0 of 1 mixed pair_coeff terms from geometric mixing rule
