LAMMPS (23 Jun 2022 - Update 1)
# Read restart
read_restart ./pgnpmf/91/equpmf7.res
Reading restart file ...
  restart file = 23 Jun 2022, LAMMPS = 23 Jun 2022
  restoring atom style atomic from restart
  orthogonal box = (1251.7609 1251.7609 1251.7609) to (2748.2391 2748.2391 2748.2391)
  restoring pair style table from restart
  1000 atoms
  read_restart CPU = 0.006 seconds

# Settings

pair_style table spline 9941

pair_coeff 1 1 ./pgnpmf/N20.txt DE_GNP 75.6
pair_coeff 2 2 ./pgnpmf/N100.txt DE_GNP 115.92
pair_coeff 1 2 ./pgnpmf/mixed_potential.txt DE_GNP 95.66

#Neigh_list Calc Frequency

neigh_modify delay 0 every 1 check yes

# Saving Frequency (50 frames)

variable ts_save equal 5000

variable nts equal 5000/0.25
variable medium equal 20000*3
variable long equal 20000*5

# Dump
#dump_modify 1 first no sort id
dump 2 all cfg 50000 ./pgnpmf/91/equilibration/trajectory/dumpequ.tens_*.cfg mass type xs ys zs fx fy fz
dump_modify 2 element N20 N100

# thermo_style
thermo_style custom step temp press pe density ke etotal lx ly lz xlo xhi ylo yhi zlo zhi vol dt time cpu tpcpu spcpu cpuremain

# run info
timestep 0.25
thermo 5000

# fix

fix 1 all momentum 1000 linear 1 1 1 angular
variable T equal 300
fix 2 all nvt temp 300 370000 100.0

run 20000
Generated 0 of 1 mixed pair_coeff terms from geometric mixing rule
Unused restart file global fix info:
  fix style: npt, fix ID: 5
  update every 1 steps, delay 0 steps, check yes
Step          Temp          Press          PotEng        Density         KinEng         TotEng           Lx             Ly             Lz            Xlo            Xhi            Ylo            Yhi            Zlo            Zhi           Volume           Dt            Time           CPU           T/CPU          S/CPU         CPULeft
1460000   320.07154      0.98387861    -874555.09      0.11984547     953.1184      -873601.97      1496.4782      1496.4782      1496.4782      1251.7609      2748.2391      1251.7609      2748.2391      1251.7609      2748.2391      3.3512839e+09  0.25           410000         0              0              0              0
Loop time of 0.485293 on 4 procs for 20000 steps with 1000 atoms

unfix 2

fix 3 all nvt temp 370000 370000 $(100.0*dt) #iso 1.0 1.0 $(1000.0*dt)
fix 3 all nvt temp 370000 370000 25

run 100000
Generated 0 of 1 mixed pair_coeff terms from geometric mixing rule
Step          Temp          Press          PotEng        Density         KinEng         TotEng           Lx             Ly             Lz            Xlo            Xhi            Ylo            Yhi            Zlo            Zhi           Volume           Dt            Time           CPU           T/CPU          S/CPU         CPULeft
1480000   377132.42      29.42915      -787455.46      0.11984547     1123036        335580.49      1496.4782      1496.4782      1496.4782      1251.7609      2748.2391      1251.7609      2748.2391      1251.7609      2748.2391      3.3512839e+09  0.25           415000         0              0              0              0
Averages over the last 11 of 21 rows, steps 1530000 to 1580000:
Temp Press PotEng Density KinEng TotEng Lx Ly Lz Xlo Xhi Ylo Yhi Zlo Zhi Volume Dt
369089 16.5825 -754942 0.119845 1.09908e+06 344143 1496.48 1496.48 1496.48 1251.76 2748.24 1251.76 2748.24 1251.76 2748.24 3.35128e+09 0.25
Loop time of 2.48064 on 4 procs for 100000 steps with 1000 atoms

unfix 3

fix 4 all nvt temp 370000 300 100.0

run 20000
Generated 0 of 1 mixed pair_coeff terms from geometric mixing rule
Step          Temp          Press          PotEng        Density         KinEng         TotEng           Lx             Ly             Lz            Xlo            Xhi            Ylo            Yhi            Zlo            Zhi           Volume           Dt            Time           CPU           T/CPU          S/CPU         CPULeft
1580000   373141.54      12.444861     -704023.29      0.11984547     1111151.8      407128.5       1496.4782      1496.4782      1496.4782      1251.7609      2748.2391      1251.7609      2748.2391      1251.7609      2748.2391      3.3512839e+09  0.25           440000         0              0              0              0
Loop time of 0.471682 on 4 procs for 20000 steps with 1000 atoms

unfix 4

fix 5 all npt temp 300 300 $(100.0*dt) iso 1.0 1.0 $(1000.0*dt)
fix 5 all npt temp 300 300 25 iso 1.0 1.0 $(1000.0*dt)
fix 5 all npt temp 300 300 25 iso 1.0 1.0 250

run 60000
Generated 0 of 1 mixed pair_coeff terms from geometric mixing rule
Step          Temp          Press          PotEng        Density         KinEng         TotEng           Lx             Ly             Lz            Xlo            Xhi            Ylo            Yhi            Zlo            Zhi           Volume           Dt            Time           CPU           T/CPU          S/CPU         CPULeft
1600000   7911.7163     -3.7633749     -683358.67      0.11984547     23559.74      -659798.93      1496.4782      1496.4782      1496.4782      1251.7609      2748.2391      1251.7609      2748.2391      1251.7609      2748.2391      3.3512839e+09  0.25           445000         0              0              0              0
Averages over the last 7 of 13 rows, steps 1630000 to 1660000:
Temp Press PotEng Density KinEng TotEng Lx Ly Lz Xlo Xhi Ylo Yhi Zlo Zhi Volume Dt
319.577 0.975452 -870411 0.141776 951.645 -869459 1415.14 1415.14 1415.14 1292.43 2707.57 1292.43 2707.57 1292.43 2707.57 2.83451e+09 0.25
Loop time of 2.14123 on 4 procs for 60000 steps with 1000 atoms

# run_style
run_style verlet

# write restart
write_restart ./pgnpmf/91/equpmf8.res
System init for write_restart ...
Generated 0 of 1 mixed pair_coeff terms from geometric mixing rule
