LAMMPS (23 Jun 2022 - Update 1)
# Read restart
read_restart ./pgnpmf/91/equpmf10.res
Reading restart file ...
  restart file = 23 Jun 2022, LAMMPS = 23 Jun 2022
  restoring atom style atomic from restart
  orthogonal box = (1389.5872 1389.5872 1389.5872) to (2610.4128 2610.4128 2610.4128)
  restoring pair style table from restart
  1000 atoms
  read_restart CPU = 0.004 seconds

# Settings

pair_style table spline 9941

pair_coeff 1 1 ./pgnpmf/N20.txt DE_GNP 75.6
pair_coeff 2 2 ./pgnpmf/N100.txt DE_GNP 115.92
pair_coeff 1 2 ./pgnpmf/mixed_potential.txt DE_GNP 95.66

#Neigh_list Calc Frequency

neigh_modify delay 0 every 1 check yes

# Saving Frequency (50 frames)

variable ts_save equal 5000

variable nts equal 5000/0.25
variable medium equal 20000*3
variable long equal 20000*5

# Dump
#dump_modify 1 first no sort id
dump 2 all cfg 50000 ./pgnpmf/91/equilibration/trajectory/dumpequ.tens_*.cfg mass type xs ys zs fx fy fz
dump_modify 2 element N20 N100

# thermo_style
thermo_style custom step temp press pe density ke etotal lx ly lz xlo xhi ylo yhi zlo zhi vol dt time cpu tpcpu spcpu cpuremain

# run info
timestep 0.25
thermo 5000

# fix

fix 1 all momentum 1000 linear 1 1 1 angular
variable T equal 300
fix 2 all nvt temp 300 370000 100.0

run 20000
Generated 0 of 1 mixed pair_coeff terms from geometric mixing rule
Unused restart file global fix info:
  fix style: npt, fix ID: 5
  update every 1 steps, delay 0 steps, check yes
Step          Temp          Press          PotEng        Density         KinEng         TotEng           Lx             Ly             Lz            Xlo            Xhi            Ylo            Yhi            Zlo            Zhi           Volume           Dt            Time           CPU           T/CPU          S/CPU         CPULeft
2060000   318.42898      1.1465749     -1141526.8      0.22073535     948.22713     -1140578.5      1220.8257      1220.8257      1220.8257      1389.5872      2610.4128      1389.5872      2610.4128      1389.5872      2610.4128      1.8195374e+09  0.25           560000         0              0              0              0
Loop time of 0.530621 on 4 procs for 20000 steps with 1000 atoms

unfix 2

fix 3 all nvt temp 370000 370000 $(100.0*dt) #iso 1.0 1.0 $(1000.0*dt)
fix 3 all nvt temp 370000 370000 25

run 100000
Generated 0 of 1 mixed pair_coeff terms from geometric mixing rule
Step          Temp          Press          PotEng        Density         KinEng         TotEng           Lx             Ly             Lz            Xlo            Xhi            Ylo            Yhi            Zlo            Zhi           Volume           Dt            Time           CPU           T/CPU          S/CPU         CPULeft
2080000   376658.77      63.117771     -1061211.2      0.22073535     1121625.5      60414.307      1220.8257      1220.8257      1220.8257      1389.5872      2610.4128      1389.5872      2610.4128      1389.5872      2610.4128      1.8195374e+09  0.25           565000         0              0              0              0
Averages over the last 11 of 21 rows, steps 2130000 to 2180000:
Temp Press PotEng Density KinEng TotEng Lx Ly Lz Xlo Xhi Ylo Yhi Zlo Zhi Volume Dt
363681 28.5405 -922122 0.220735 1.08298e+06 160859 1220.83 1220.83 1220.83 1389.59 2610.41 1389.59 2610.41 1389.59 2610.41 1.81954e+09 0.25
Loop time of 2.64934 on 4 procs for 100000 steps with 1000 atoms

unfix 3

fix 4 all nvt temp 370000 300 100.0

run 20000
Generated 0 of 1 mixed pair_coeff terms from geometric mixing rule
Step          Temp          Press          PotEng        Density         KinEng         TotEng           Lx             Ly             Lz            Xlo            Xhi            Ylo            Yhi            Zlo            Zhi           Volume           Dt            Time           CPU           T/CPU          S/CPU         CPULeft
2180000   374916.02      28.545517     -878555.69      0.22073535     1116435.9      237880.19      1220.8257      1220.8257      1220.8257      1389.5872      2610.4128      1389.5872      2610.4128      1389.5872      2610.4128      1.8195374e+09  0.25           590000         0              0              0              0
Loop time of 0.521383 on 4 procs for 20000 steps with 1000 atoms

unfix 4

fix 5 all npt temp 300 300 $(100.0*dt) iso 1.0 1.0 $(1000.0*dt)
fix 5 all npt temp 300 300 25 iso 1.0 1.0 $(1000.0*dt)
fix 5 all npt temp 300 300 25 iso 1.0 1.0 250

run 60000
Generated 0 of 1 mixed pair_coeff terms from geometric mixing rule
Step          Temp          Press          PotEng        Density         KinEng         TotEng           Lx             Ly             Lz            Xlo            Xhi            Ylo            Yhi            Zlo            Zhi           Volume           Dt            Time           CPU           T/CPU          S/CPU         CPULeft
2200000   7995.1989     -9.1380904     -871349.34      0.22073535     23808.337     -847541         1220.8257      1220.8257      1220.8257      1389.5872      2610.4128      1389.5872      2610.4128      1389.5872      2610.4128      1.8195374e+09  0.25           595000         0              0              0              0
Averages over the last 7 of 13 rows, steps 2230000 to 2260000:
Temp Press PotEng Density KinEng TotEng Lx Ly Lz Xlo Xhi Ylo Yhi Zlo Zhi Volume Dt
321.523 0.942494 -1.14199e+06 0.257319 957.44 -1.14104e+06 1160.1 1160.1 1160.1 1419.95 2580.05 1419.95 2580.05 1419.95 2580.05 1.5615e+09 0.25
Loop time of 2.39701 on 4 procs for 60000 steps with 1000 atoms

# run_style
run_style verlet

# write restart
write_restart ./pgnpmf/91/equpmf11.res
System init for write_restart ...
Generated 0 of 1 mixed pair_coeff terms from geometric mixing rule
