LAMMPS (23 Jun 2022 - Update 1)
# Read restart
read_restart ./pgnpmf/91/equpmf53.res
Reading restart file ...
  restart file = 23 Jun 2022, LAMMPS = 23 Jun 2022
  restoring atom style atomic from restart
  orthogonal box = (1727.9957 1727.9957 1727.9957) to (2272.0043 2272.0043 2272.0043)
  restoring pair style table from restart
  1000 atoms
  read_restart CPU = 0.010 seconds

# Settings

pair_style table spline 9941

pair_coeff 1 1 ./pgnpmf/N20.txt DE_GNP 75.6
pair_coeff 2 2 ./pgnpmf/N100.txt DE_GNP 115.92
pair_coeff 1 2 ./pgnpmf/mixed_potential.txt DE_GNP 95.66

#Neigh_list Calc Frequency

neigh_modify delay 0 every 1 check yes

# Saving Frequency (50 frames)

variable ts_save equal 5000

variable nts equal 5000/0.25
variable medium equal 20000*3
variable long equal 20000*5

# Dump
#dump_modify 1 first no sort id
dump 2 all cfg 50000 ./pgnpmf/91/equilibration/trajectory/dumpequ.tens_*.cfg mass type xs ys zs fx fy fz
dump_modify 2 element N20 N100

# thermo_style
thermo_style custom step temp press pe density ke etotal lx ly lz xlo xhi ylo yhi zlo zhi vol dt time cpu tpcpu spcpu cpuremain

# run info
timestep 0.25
thermo 5000

# fix

fix 1 all momentum 1000 linear 1 1 1 angular
variable T equal 300
fix 2 all nvt temp 300 370000 100.0

run 20000
Generated 0 of 1 mixed pair_coeff terms from geometric mixing rule
Unused restart file global fix info:
  fix style: npt, fix ID: 5
  update every 1 steps, delay 0 steps, check yes
Step          Temp          Press          PotEng        Density         KinEng         TotEng           Lx             Ly             Lz            Xlo            Xhi            Ylo            Yhi            Zlo            Zhi           Volume           Dt            Time           CPU           T/CPU          S/CPU         CPULeft
10660000   324.92439     -0.17561207    -10050107       2.4946832      967.56936     -10049139       544.00867      544.00867      544.00867      1727.9957      2272.0043      1727.9957      2272.0043      1727.9957      2272.0043      1.6099688e+08  0.25           2710000        0              0              0              0
Loop time of 1.63746 on 4 procs for 20000 steps with 1000 atoms

unfix 2

fix 3 all nvt temp 370000 370000 $(100.0*dt) #iso 1.0 1.0 $(1000.0*dt)
fix 3 all nvt temp 370000 370000 25

run 100000
Generated 0 of 1 mixed pair_coeff terms from geometric mixing rule
Step          Temp          Press          PotEng        Density         KinEng         TotEng           Lx             Ly             Lz            Xlo            Xhi            Ylo            Yhi            Zlo            Zhi           Volume           Dt            Time           CPU           T/CPU          S/CPU         CPULeft
10680000   372722.47      1934.7404     -9633910.9      2.4946832      1109903.9     -8524007        544.00867      544.00867      544.00867      1727.9957      2272.0043      1727.9957      2272.0043      1727.9957      2272.0043      1.6099688e+08  0.25           2715000        0              0              0              0
Averages over the last 11 of 21 rows, steps 10730000 to 10780000:
Temp Press PotEng Density KinEng TotEng Lx Ly Lz Xlo Xhi Ylo Yhi Zlo Zhi Volume Dt
371700 3145.97 -9.40834e+06 2.49468 1.10686e+06 -8.30148e+06 544.009 544.009 544.009 1728 2272 1728 2272 1728 2272 1.60997e+08 0.25
Loop time of 8.43671 on 4 procs for 100000 steps with 1000 atoms

unfix 3

fix 4 all nvt temp 370000 300 100.0

run 20000
Generated 0 of 1 mixed pair_coeff terms from geometric mixing rule
Step          Temp          Press          PotEng        Density         KinEng         TotEng           Lx             Ly             Lz            Xlo            Xhi            Ylo            Yhi            Zlo            Zhi           Volume           Dt            Time           CPU           T/CPU          S/CPU         CPULeft
10780000   370130.24      2924.9212     -9468557.8      2.4946832      1102184.6     -8366373.1      544.00867      544.00867      544.00867      1727.9957      2272.0043      1727.9957      2272.0043      1727.9957      2272.0043      1.6099688e+08  0.25           2740000        0              0              0              0
Loop time of 1.67433 on 4 procs for 20000 steps with 1000 atoms

unfix 4

fix 5 all npt temp 300 300 $(100.0*dt) iso 1.0 1.0 $(1000.0*dt)
fix 5 all npt temp 300 300 25 iso 1.0 1.0 $(1000.0*dt)
fix 5 all npt temp 300 300 25 iso 1.0 1.0 250

run 60000
Generated 0 of 1 mixed pair_coeff terms from geometric mixing rule
Step          Temp          Press          PotEng        Density         KinEng         TotEng           Lx             Ly             Lz            Xlo            Xhi            Ylo            Yhi            Zlo            Zhi           Volume           Dt            Time           CPU           T/CPU          S/CPU         CPULeft
10800000   9626.5724      678.76088     -9888587.4      2.4946832      28666.289     -9859921.1      544.00867      544.00867      544.00867      1727.9957      2272.0043      1727.9957      2272.0043      1727.9957      2272.0043      1.6099688e+08  0.25           2745000        0              0              0              0
Averages over the last 7 of 13 rows, steps 10830000 to 10860000:
Temp Press PotEng Density KinEng TotEng Lx Ly Lz Xlo Xhi Ylo Yhi Zlo Zhi Volume Dt
327.515 0.315364 -1.00395e+07 2.4927 975.283 -1.00386e+07 544.153 544.153 544.153 1727.92 2272.08 1727.92 2272.08 1727.92 2272.08 1.61126e+08 0.25
Loop time of 5.81798 on 4 procs for 60000 steps with 1000 atoms

# run_style
run_style verlet

# write restart
write_restart ./pgnpmf/91/equpmf54.res
System init for write_restart ...
Generated 0 of 1 mixed pair_coeff terms from geometric mixing rule
