LAMMPS (23 Jun 2022 - Update 1)
# Read restart
read_restart ./pgnpmf/91/equpmf14.res
Reading restart file ...
  restart file = 23 Jun 2022, LAMMPS = 23 Jun 2022
  restoring atom style atomic from restart
  orthogonal box = (1514.4225 1514.4225 1514.4225) to (2485.5775 2485.5775 2485.5775)
  restoring pair style table from restart
  1000 atoms
  read_restart CPU = 0.004 seconds

# Settings

pair_style table spline 9941

pair_coeff 1 1 ./pgnpmf/N20.txt DE_GNP 75.6
pair_coeff 2 2 ./pgnpmf/N100.txt DE_GNP 115.92
pair_coeff 1 2 ./pgnpmf/mixed_potential.txt DE_GNP 95.66

#Neigh_list Calc Frequency

neigh_modify delay 0 every 1 check yes

# Saving Frequency (50 frames)

variable ts_save equal 5000

variable nts equal 5000/0.25
variable medium equal 20000*3
variable long equal 20000*5

# Dump
#dump_modify 1 first no sort id
dump 2 all cfg 50000 ./pgnpmf/91/equilibration/trajectory/dumpequ.tens_*.cfg mass type xs ys zs fx fy fz
dump_modify 2 element N20 N100

# thermo_style
thermo_style custom step temp press pe density ke etotal lx ly lz xlo xhi ylo yhi zlo zhi vol dt time cpu tpcpu spcpu cpuremain

# run info
timestep 0.25
thermo 5000

# fix

fix 1 all momentum 1000 linear 1 1 1 angular
variable T equal 300
fix 2 all nvt temp 300 370000 100.0

run 20000
Generated 0 of 1 mixed pair_coeff terms from geometric mixing rule
Unused restart file global fix info:
  fix style: npt, fix ID: 5
  update every 1 steps, delay 0 steps, check yes
Step          Temp          Press          PotEng        Density         KinEng         TotEng           Lx             Ly             Lz            Xlo            Xhi            Ylo            Yhi            Zlo            Zhi           Volume           Dt            Time           CPU           T/CPU          S/CPU         CPULeft
2860000   323.88505      1.2877975     -1627516.4      0.43849754     964.47436     -1626552        971.15504      971.15504      971.15504      1514.4225      2485.5775      1514.4225      2485.5775      1514.4225      2485.5775      9.1593721e+08  0.25           760000         0              0              0              0
Loop time of 0.62721 on 4 procs for 20000 steps with 1000 atoms

unfix 2

fix 3 all nvt temp 370000 370000 $(100.0*dt) #iso 1.0 1.0 $(1000.0*dt)
fix 3 all nvt temp 370000 370000 25

run 100000
Generated 0 of 1 mixed pair_coeff terms from geometric mixing rule
Step          Temp          Press          PotEng        Density         KinEng         TotEng           Lx             Ly             Lz            Xlo            Xhi            Ylo            Yhi            Zlo            Zhi           Volume           Dt            Time           CPU           T/CPU          S/CPU         CPULeft
2880000   376218.47      96.992902     -1552032.9      0.43849754     1120314.4     -431718.54      971.15504      971.15504      971.15504      1514.4225      2485.5775      1514.4225      2485.5775      1514.4225      2485.5775      9.1593721e+08  0.25           765000         0              0              0              0
Averages over the last 11 of 21 rows, steps 2930000 to 2980000:
Temp Press PotEng Density KinEng TotEng Lx Ly Lz Xlo Xhi Ylo Yhi Zlo Zhi Volume Dt
366779 66.6261 -1.57538e+06 0.438498 1.09221e+06 -483175 971.155 971.155 971.155 1514.42 2485.58 1514.42 2485.58 1514.42 2485.58 9.15937e+08 0.25
Loop time of 3.09119 on 4 procs for 100000 steps with 1000 atoms

unfix 3

fix 4 all nvt temp 370000 300 100.0

run 20000
Generated 0 of 1 mixed pair_coeff terms from geometric mixing rule
Step          Temp          Press          PotEng        Density         KinEng         TotEng           Lx             Ly             Lz            Xlo            Xhi            Ylo            Yhi            Zlo            Zhi           Volume           Dt            Time           CPU           T/CPU          S/CPU         CPULeft
2980000   355385.19      60.365563     -1542942.4      0.43849754     1058276.4     -484666         971.15504      971.15504      971.15504      1514.4225      2485.5775      1514.4225      2485.5775      1514.4225      2485.5775      9.1593721e+08  0.25           790000         0              0              0              0
Loop time of 0.608144 on 4 procs for 20000 steps with 1000 atoms

unfix 4

fix 5 all npt temp 300 300 $(100.0*dt) iso 1.0 1.0 $(1000.0*dt)
fix 5 all npt temp 300 300 25 iso 1.0 1.0 $(1000.0*dt)
fix 5 all npt temp 300 300 25 iso 1.0 1.0 250

run 60000
Generated 0 of 1 mixed pair_coeff terms from geometric mixing rule
Step          Temp          Press          PotEng        Density         KinEng         TotEng           Lx             Ly             Lz            Xlo            Xhi            Ylo            Yhi            Zlo            Zhi           Volume           Dt            Time           CPU           T/CPU          S/CPU         CPULeft
3000000   8018.6078     -42.95855      -1631607.8      0.43849754     23878.045     -1607729.7      971.15504      971.15504      971.15504      1514.4225      2485.5775      1514.4225      2485.5775      1514.4225      2485.5775      9.1593721e+08  0.25           795000         0              0              0              0
Averages over the last 7 of 13 rows, steps 3030000 to 3060000:
Temp Press PotEng Density KinEng TotEng Lx Ly Lz Xlo Xhi Ylo Yhi Zlo Zhi Volume Dt
324.584 0.930402 -1.87388e+06 0.499058 966.556 -1.87292e+06 930.205 930.205 930.205 1534.9 2465.1 1534.9 2465.1 1534.9 2465.1 8.04938e+08 0.25
Loop time of 2.64864 on 4 procs for 60000 steps with 1000 atoms

# run_style
run_style verlet

# write restart
write_restart ./pgnpmf/91/equpmf15.res
System init for write_restart ...
Generated 0 of 1 mixed pair_coeff terms from geometric mixing rule
