LAMMPS (23 Jun 2022 - Update 1)
# Read restart
read_restart ./pgnpmf/91/equpmf23.res
Reading restart file ...
  restart file = 23 Jun 2022, LAMMPS = 23 Jun 2022
  restoring atom style atomic from restart
  orthogonal box = (1663.0535 1663.0535 1663.0535) to (2336.9465 2336.9465 2336.9465)
  restoring pair style table from restart
  1000 atoms
  read_restart CPU = 0.007 seconds

# Settings

pair_style table spline 9941

pair_coeff 1 1 ./pgnpmf/N20.txt DE_GNP 75.6
pair_coeff 2 2 ./pgnpmf/N100.txt DE_GNP 115.92
pair_coeff 1 2 ./pgnpmf/mixed_potential.txt DE_GNP 95.66

#Neigh_list Calc Frequency

neigh_modify delay 0 every 1 check yes

# Saving Frequency (50 frames)

variable ts_save equal 5000

variable nts equal 5000/0.25
variable medium equal 20000*3
variable long equal 20000*5

# Dump
#dump_modify 1 first no sort id
dump 2 all cfg 50000 ./pgnpmf/91/equilibration/trajectory/dumpequ.tens_*.cfg mass type xs ys zs fx fy fz
dump_modify 2 element N20 N100

# thermo_style
thermo_style custom step temp press pe density ke etotal lx ly lz xlo xhi ylo yhi zlo zhi vol dt time cpu tpcpu spcpu cpuremain

# run info
timestep 0.25
thermo 5000

# fix

fix 1 all momentum 1000 linear 1 1 1 angular
variable T equal 300
fix 2 all nvt temp 300 370000 100.0

run 20000
Generated 0 of 1 mixed pair_coeff terms from geometric mixing rule
Unused restart file global fix info:
  fix style: npt, fix ID: 5
  update every 1 steps, delay 0 steps, check yes
Step          Temp          Press          PotEng        Density         KinEng         TotEng           Lx             Ly             Lz            Xlo            Xhi            Ylo            Yhi            Zlo            Zhi           Volume           Dt            Time           CPU           T/CPU          S/CPU         CPULeft
4660000   335.18948      1.1075397     -5056922.1      1.3123817      998.13703     -5055923.9      673.89293      673.89293      673.89293      1663.0535      2336.9465      1663.0535      2336.9465      1663.0535      2336.9465      3.0603613e+08  0.25           1210000        0              0              0              0
Loop time of 1.18627 on 4 procs for 20000 steps with 1000 atoms

unfix 2

fix 3 all nvt temp 370000 370000 $(100.0*dt) #iso 1.0 1.0 $(1000.0*dt)
fix 3 all nvt temp 370000 370000 25

run 100000
Generated 0 of 1 mixed pair_coeff terms from geometric mixing rule
Step          Temp          Press          PotEng        Density         KinEng         TotEng           Lx             Ly             Lz            Xlo            Xhi            Ylo            Yhi            Zlo            Zhi           Volume           Dt            Time           CPU           T/CPU          S/CPU         CPULeft
4680000   368907.4       333.15974     -4943350.6      1.3123817      1098543.2     -3844807.4      673.89293      673.89293      673.89293      1663.0535      2336.9465      1663.0535      2336.9465      1663.0535      2336.9465      3.0603613e+08  0.25           1215000        0              0              0              0
Averages over the last 11 of 21 rows, steps 4730000 to 4780000:
Temp Press PotEng Density KinEng TotEng Lx Ly Lz Xlo Xhi Ylo Yhi Zlo Zhi Volume Dt
371986 220.869 -5.0357e+06 1.31238 1.10771e+06 -3.92799e+06 673.893 673.893 673.893 1663.05 2336.95 1663.05 2336.95 1663.05 2336.95 3.06036e+08 0.25
Loop time of 6.03561 on 4 procs for 100000 steps with 1000 atoms

unfix 3

fix 4 all nvt temp 370000 300 100.0

run 20000
Generated 0 of 1 mixed pair_coeff terms from geometric mixing rule
Step          Temp          Press          PotEng        Density         KinEng         TotEng           Lx             Ly             Lz            Xlo            Xhi            Ylo            Yhi            Zlo            Zhi           Volume           Dt            Time           CPU           T/CPU          S/CPU         CPULeft
4780000   361911.36      202.15896     -5074040.3      1.3123817      1077710.2     -3996330.1      673.89293      673.89293      673.89293      1663.0535      2336.9465      1663.0535      2336.9465      1663.0535      2336.9465      3.0603613e+08  0.25           1240000        0              0              0              0
Loop time of 1.19018 on 4 procs for 20000 steps with 1000 atoms

unfix 4

fix 5 all npt temp 300 300 $(100.0*dt) iso 1.0 1.0 $(1000.0*dt)
fix 5 all npt temp 300 300 25 iso 1.0 1.0 $(1000.0*dt)
fix 5 all npt temp 300 300 25 iso 1.0 1.0 250

run 60000
Generated 0 of 1 mixed pair_coeff terms from geometric mixing rule
Step          Temp          Press          PotEng        Density         KinEng         TotEng           Lx             Ly             Lz            Xlo            Xhi            Ylo            Yhi            Zlo            Zhi           Volume           Dt            Time           CPU           T/CPU          S/CPU         CPULeft
4800000   8463.4257     -377.78041     -5242363.2      1.3123817      25202.636     -5217160.5      673.89293      673.89293      673.89293      1663.0535      2336.9465      1663.0535      2336.9465      1663.0535      2336.9465      3.0603613e+08  0.25           1245000        0              0              0              0
Averages over the last 7 of 13 rows, steps 4830000 to 4860000:
Temp Press PotEng Density KinEng TotEng Lx Ly Lz Xlo Xhi Ylo Yhi Zlo Zhi Volume Dt
337.465 1.83788 -5.65467e+06 1.42393 1004.91 -5.65367e+06 655.822 655.822 655.822 1672.09 2327.91 1672.09 2327.91 1672.09 2327.91 2.82075e+08 0.25
Loop time of 4.47635 on 4 procs for 60000 steps with 1000 atoms

# run_style
run_style verlet

# write restart
write_restart ./pgnpmf/91/equpmf24.res
System init for write_restart ...
Generated 0 of 1 mixed pair_coeff terms from geometric mixing rule
