LAMMPS (23 Jun 2022 - Update 1)
# Read restart
read_restart ./pgnpmf/91/equpmf38.res
Reading restart file ...
  restart file = 23 Jun 2022, LAMMPS = 23 Jun 2022
  restoring atom style atomic from restart
  orthogonal box = (1726.9434 1726.9434 1726.9434) to (2273.0566 2273.0566 2273.0566)
  restoring pair style table from restart
  1000 atoms
  read_restart CPU = 0.004 seconds

# Settings

pair_style table spline 9941

pair_coeff 1 1 ./pgnpmf/N20.txt DE_GNP 75.6
pair_coeff 2 2 ./pgnpmf/N100.txt DE_GNP 115.92
pair_coeff 1 2 ./pgnpmf/mixed_potential.txt DE_GNP 95.66

#Neigh_list Calc Frequency

neigh_modify delay 0 every 1 check yes

# Saving Frequency (50 frames)

variable ts_save equal 5000

variable nts equal 5000/0.25
variable medium equal 20000*3
variable long equal 20000*5

# Dump
#dump_modify 1 first no sort id
dump 2 all cfg 50000 ./pgnpmf/91/equilibration/trajectory/dumpequ.tens_*.cfg mass type xs ys zs fx fy fz
dump_modify 2 element N20 N100

# thermo_style
thermo_style custom step temp press pe density ke etotal lx ly lz xlo xhi ylo yhi zlo zhi vol dt time cpu tpcpu spcpu cpuremain

# run info
timestep 0.25
thermo 5000

# fix

fix 1 all momentum 1000 linear 1 1 1 angular
variable T equal 300
fix 2 all nvt temp 300 370000 100.0

run 20000
Generated 0 of 1 mixed pair_coeff terms from geometric mixing rule
Unused restart file global fix info:
  fix style: npt, fix ID: 5
  update every 1 steps, delay 0 steps, check yes
Step          Temp          Press          PotEng        Density         KinEng         TotEng           Lx             Ly             Lz            Xlo            Xhi            Ylo            Yhi            Zlo            Zhi           Volume           Dt            Time           CPU           T/CPU          S/CPU         CPULeft
7660000   325.87199      3.0495721     -9949119.8      2.4659527      970.39115     -9948149.4      546.11324      546.11324      546.11324      1726.9434      2273.0566      1726.9434      2273.0566      1726.9434      2273.0566      1.6287263e+08  0.25           1960000        0              0              0              0
Loop time of 1.65423 on 4 procs for 20000 steps with 1000 atoms

unfix 2

fix 3 all nvt temp 370000 370000 $(100.0*dt) #iso 1.0 1.0 $(1000.0*dt)
fix 3 all nvt temp 370000 370000 25

run 100000
Generated 0 of 1 mixed pair_coeff terms from geometric mixing rule
Step          Temp          Press          PotEng        Density         KinEng         TotEng           Lx             Ly             Lz            Xlo            Xhi            Ylo            Yhi            Zlo            Zhi           Volume           Dt            Time           CPU           T/CPU          S/CPU         CPULeft
7680000   372517.74      1803.0506     -9549574.7      2.4659527      1109294.2     -8440280.5      546.11324      546.11324      546.11324      1726.9434      2273.0566      1726.9434      2273.0566      1726.9434      2273.0566      1.6287263e+08  0.25           1965000        0              0              0              0
Averages over the last 11 of 21 rows, steps 7730000 to 7780000:
Temp Press PotEng Density KinEng TotEng Lx Ly Lz Xlo Xhi Ylo Yhi Zlo Zhi Volume Dt
366792 3018.15 -9.28941e+06 2.46595 1.09224e+06 -8.19717e+06 546.113 546.113 546.113 1726.94 2273.06 1726.94 2273.06 1726.94 2273.06 1.62873e+08 0.25
Loop time of 8.18809 on 4 procs for 100000 steps with 1000 atoms

unfix 3

fix 4 all nvt temp 370000 300 100.0

run 20000
Generated 0 of 1 mixed pair_coeff terms from geometric mixing rule
Step          Temp          Press          PotEng        Density         KinEng         TotEng           Lx             Ly             Lz            Xlo            Xhi            Ylo            Yhi            Zlo            Zhi           Volume           Dt            Time           CPU           T/CPU          S/CPU         CPULeft
7780000   383702.69      3106.1241     -9277165        2.4659527      1142601.1     -8134564        546.11324      546.11324      546.11324      1726.9434      2273.0566      1726.9434      2273.0566      1726.9434      2273.0566      1.6287263e+08  0.25           1990000        0              0              0              0
Loop time of 1.63563 on 4 procs for 20000 steps with 1000 atoms

unfix 4

fix 5 all npt temp 300 300 $(100.0*dt) iso 1.0 1.0 $(1000.0*dt)
fix 5 all npt temp 300 300 25 iso 1.0 1.0 $(1000.0*dt)
fix 5 all npt temp 300 300 25 iso 1.0 1.0 250

run 60000
Generated 0 of 1 mixed pair_coeff terms from geometric mixing rule
Step          Temp          Press          PotEng        Density         KinEng         TotEng           Lx             Ly             Lz            Xlo            Xhi            Ylo            Yhi            Zlo            Zhi           Volume           Dt            Time           CPU           T/CPU          S/CPU         CPULeft
7800000   9561.3979      678.07253     -9785745.4      2.4659527      28472.21      -9757273.2      546.11324      546.11324      546.11324      1726.9434      2273.0566      1726.9434      2273.0566      1726.9434      2273.0566      1.6287263e+08  0.25           1995000        0              0              0              0
Averages over the last 7 of 13 rows, steps 7830000 to 7860000:
Temp Press PotEng Density KinEng TotEng Lx Ly Lz Xlo Xhi Ylo Yhi Zlo Zhi Volume Dt
327.847 -0.538818 -9.90248e+06 2.46394 976.271 -9.9015e+06 546.263 546.263 546.263 1726.87 2273.13 1726.87 2273.13 1726.87 2273.13 1.63007e+08 0.25
Loop time of 5.69575 on 4 procs for 60000 steps with 1000 atoms

# run_style
run_style verlet

# write restart
write_restart ./pgnpmf/91/equpmf39.res
System init for write_restart ...
Generated 0 of 1 mixed pair_coeff terms from geometric mixing rule
