LAMMPS (23 Jun 2022 - Update 1)
# Read restart
read_restart ./pgnpmf/91/equpmf29.res
Reading restart file ...
  restart file = 23 Jun 2022, LAMMPS = 23 Jun 2022
  restoring atom style atomic from restart
  orthogonal box = (1709.7902 1709.7902 1709.7902) to (2290.2098 2290.2098 2290.2098)
  restoring pair style table from restart
  1000 atoms
  read_restart CPU = 0.004 seconds

# Settings

pair_style table spline 9941

pair_coeff 1 1 ./pgnpmf/N20.txt DE_GNP 75.6
pair_coeff 2 2 ./pgnpmf/N100.txt DE_GNP 115.92
pair_coeff 1 2 ./pgnpmf/mixed_potential.txt DE_GNP 95.66

#Neigh_list Calc Frequency

neigh_modify delay 0 every 1 check yes

# Saving Frequency (50 frames)

variable ts_save equal 5000

variable nts equal 5000/0.25
variable medium equal 20000*3
variable long equal 20000*5

# Dump
#dump_modify 1 first no sort id
dump 2 all cfg 50000 ./pgnpmf/91/equilibration/trajectory/dumpequ.tens_*.cfg mass type xs ys zs fx fy fz
dump_modify 2 element N20 N100

# thermo_style
thermo_style custom step temp press pe density ke etotal lx ly lz xlo xhi ylo yhi zlo zhi vol dt time cpu tpcpu spcpu cpuremain

# run info
timestep 0.25
thermo 5000

# fix

fix 1 all momentum 1000 linear 1 1 1 angular
variable T equal 300
fix 2 all nvt temp 300 370000 100.0

run 20000
Generated 0 of 1 mixed pair_coeff terms from geometric mixing rule
Unused restart file global fix info:
  fix style: npt, fix ID: 5
  update every 1 steps, delay 0 steps, check yes
Step          Temp          Press          PotEng        Density         KinEng         TotEng           Lx             Ly             Lz            Xlo            Xhi            Ylo            Yhi            Zlo            Zhi           Volume           Dt            Time           CPU           T/CPU          S/CPU         CPULeft
5860000   335.28309      0.80719864    -8240511.9      2.0540303      998.4158      -8239513.5      580.41951      580.41951      580.41951      1709.7902      2290.2098      1709.7902      2290.2098      1709.7902      2290.2098      1.9553568e+08  0.25           1510000        0              0              0              0
Loop time of 1.53575 on 4 procs for 20000 steps with 1000 atoms

unfix 2

fix 3 all nvt temp 370000 370000 $(100.0*dt) #iso 1.0 1.0 $(1000.0*dt)
fix 3 all nvt temp 370000 370000 25

run 100000
Generated 0 of 1 mixed pair_coeff terms from geometric mixing rule
Step          Temp          Press          PotEng        Density         KinEng         TotEng           Lx             Ly             Lz            Xlo            Xhi            Ylo            Yhi            Zlo            Zhi           Volume           Dt            Time           CPU           T/CPU          S/CPU         CPULeft
5880000   368688.63      539.8978      -8060395.4      2.0540303      1097891.8     -6962503.6      580.41951      580.41951      580.41951      1709.7902      2290.2098      1709.7902      2290.2098      1709.7902      2290.2098      1.9553568e+08  0.25           1515000        0              0              0              0
Averages over the last 11 of 21 rows, steps 5930000 to 5980000:
Temp Press PotEng Density KinEng TotEng Lx Ly Lz Xlo Xhi Ylo Yhi Zlo Zhi Volume Dt
370948 942.824 -7.94694e+06 2.05403 1.10462e+06 -6.84232e+06 580.42 580.42 580.42 1709.79 2290.21 1709.79 2290.21 1709.79 2290.21 1.95536e+08 0.25
Loop time of 7.61448 on 4 procs for 100000 steps with 1000 atoms

unfix 3

fix 4 all nvt temp 370000 300 100.0

run 20000
Generated 0 of 1 mixed pair_coeff terms from geometric mixing rule
Step          Temp          Press          PotEng        Density         KinEng         TotEng           Lx             Ly             Lz            Xlo            Xhi            Ylo            Yhi            Zlo            Zhi           Volume           Dt            Time           CPU           T/CPU          S/CPU         CPULeft
5980000   370746.38      949.35868     -7948868.4      2.0540303      1104019.4     -6844848.9      580.41951      580.41951      580.41951      1709.7902      2290.2098      1709.7902      2290.2098      1709.7902      2290.2098      1.9553568e+08  0.25           1540000        0              0              0              0
Loop time of 1.50772 on 4 procs for 20000 steps with 1000 atoms

unfix 4

fix 5 all npt temp 300 300 $(100.0*dt) iso 1.0 1.0 $(1000.0*dt)
fix 5 all npt temp 300 300 25 iso 1.0 1.0 $(1000.0*dt)
fix 5 all npt temp 300 300 25 iso 1.0 1.0 250

run 60000
Generated 0 of 1 mixed pair_coeff terms from geometric mixing rule
Step          Temp          Press          PotEng        Density         KinEng         TotEng           Lx             Ly             Lz            Xlo            Xhi            Ylo            Yhi            Zlo            Zhi           Volume           Dt            Time           CPU           T/CPU          S/CPU         CPULeft
6000000   8968.6587     -515.96813     -8282260.1      2.0540303      26707.134     -8255552.9      580.41951      580.41951      580.41951      1709.7902      2290.2098      1709.7902      2290.2098      1709.7902      2290.2098      1.9553568e+08  0.25           1545000        0              0              0              0
Averages over the last 7 of 13 rows, steps 6030000 to 6060000:
Temp Press PotEng Density KinEng TotEng Lx Ly Lz Xlo Xhi Ylo Yhi Zlo Zhi Volume Dt
335.968 1.55493 -8.57802e+06 2.13938 1000.45 -8.57702e+06 572.598 572.598 572.598 1713.7 2286.3 1713.7 2286.3 1713.7 2286.3 1.87738e+08 0.25
Loop time of 5.43967 on 4 procs for 60000 steps with 1000 atoms

# run_style
run_style verlet

# write restart
write_restart ./pgnpmf/91/equpmf30.res
System init for write_restart ...
Generated 0 of 1 mixed pair_coeff terms from geometric mixing rule
