LAMMPS (23 Jun 2022 - Update 1)
# Read restart
read_restart ./pgnpmf/91/equpmf17.res
Reading restart file ...
  restart file = 23 Jun 2022, LAMMPS = 23 Jun 2022
  restoring atom style atomic from restart
  orthogonal box = (1577.4998 1577.4998 1577.4998) to (2422.5002 2422.5002 2422.5002)
  restoring pair style table from restart
  1000 atoms
  read_restart CPU = 0.005 seconds

# Settings

pair_style table spline 9941

pair_coeff 1 1 ./pgnpmf/N20.txt DE_GNP 75.6
pair_coeff 2 2 ./pgnpmf/N100.txt DE_GNP 115.92
pair_coeff 1 2 ./pgnpmf/mixed_potential.txt DE_GNP 95.66

#Neigh_list Calc Frequency

neigh_modify delay 0 every 1 check yes

# Saving Frequency (50 frames)

variable ts_save equal 5000

variable nts equal 5000/0.25
variable medium equal 20000*3
variable long equal 20000*5

# Dump
#dump_modify 1 first no sort id
dump 2 all cfg 50000 ./pgnpmf/91/equilibration/trajectory/dumpequ.tens_*.cfg mass type xs ys zs fx fy fz
dump_modify 2 element N20 N100

# thermo_style
thermo_style custom step temp press pe density ke etotal lx ly lz xlo xhi ylo yhi zlo zhi vol dt time cpu tpcpu spcpu cpuremain

# run info
timestep 0.25
thermo 5000

# fix

fix 1 all momentum 1000 linear 1 1 1 angular
variable T equal 300
fix 2 all nvt temp 300 370000 100.0

run 20000
Generated 0 of 1 mixed pair_coeff terms from geometric mixing rule
Unused restart file global fix info:
  fix style: npt, fix ID: 5
  update every 1 steps, delay 0 steps, check yes
Step          Temp          Press          PotEng        Density         KinEng         TotEng           Lx             Ly             Lz            Xlo            Xhi            Ylo            Yhi            Zlo            Zhi           Volume           Dt            Time           CPU           T/CPU          S/CPU         CPULeft
3460000   327.02161      0.93866239    -2445287.5      0.66567462     973.81453     -2444313.7      845.00048      845.00048      845.00048      1577.4998      2422.5002      1577.4998      2422.5002      1577.4998      2422.5002      6.0335214e+08  0.25           910000         0              0              0              0
Loop time of 0.779843 on 4 procs for 20000 steps with 1000 atoms

unfix 2

fix 3 all nvt temp 370000 370000 $(100.0*dt) #iso 1.0 1.0 $(1000.0*dt)
fix 3 all nvt temp 370000 370000 25

run 100000
Generated 0 of 1 mixed pair_coeff terms from geometric mixing rule
Step          Temp          Press          PotEng        Density         KinEng         TotEng           Lx             Ly             Lz            Xlo            Xhi            Ylo            Yhi            Zlo            Zhi           Volume           Dt            Time           CPU           T/CPU          S/CPU         CPULeft
3480000   374071.79      170.15107     -2402052.4      0.66567462     1113921.9     -1288130.5      845.00048      845.00048      845.00048      1577.4998      2422.5002      1577.4998      2422.5002      1577.4998      2422.5002      6.0335214e+08  0.25           915000         0              0              0              0
Averages over the last 11 of 21 rows, steps 3530000 to 3580000:
Temp Press PotEng Density KinEng TotEng Lx Ly Lz Xlo Xhi Ylo Yhi Zlo Zhi Volume Dt
369165 97.2851 -2.28729e+06 0.665675 1.09931e+06 -1.18798e+06 845 845 845 1577.5 2422.5 1577.5 2422.5 1577.5 2422.5 6.03352e+08 0.25
Loop time of 3.95038 on 4 procs for 100000 steps with 1000 atoms

unfix 3

fix 4 all nvt temp 370000 300 100.0

run 20000
Generated 0 of 1 mixed pair_coeff terms from geometric mixing rule
Step          Temp          Press          PotEng        Density         KinEng         TotEng           Lx             Ly             Lz            Xlo            Xhi            Ylo            Yhi            Zlo            Zhi           Volume           Dt            Time           CPU           T/CPU          S/CPU         CPULeft
3580000   370008.76      87.083786     -2288194.9      0.66567462     1101822.9     -1186372        845.00048      845.00048      845.00048      1577.4998      2422.5002      1577.4998      2422.5002      1577.4998      2422.5002      6.0335214e+08  0.25           940000         0              0              0              0
Loop time of 0.792309 on 4 procs for 20000 steps with 1000 atoms

unfix 4

fix 5 all npt temp 300 300 $(100.0*dt) iso 1.0 1.0 $(1000.0*dt)
fix 5 all npt temp 300 300 25 iso 1.0 1.0 $(1000.0*dt)
fix 5 all npt temp 300 300 25 iso 1.0 1.0 250

run 60000
Generated 0 of 1 mixed pair_coeff terms from geometric mixing rule
Step          Temp          Press          PotEng        Density         KinEng         TotEng           Lx             Ly             Lz            Xlo            Xhi            Ylo            Yhi            Zlo            Zhi           Volume           Dt            Time           CPU           T/CPU          S/CPU         CPULeft
3600000   8154.5546     -85.923861     -2370041        0.66567462     24282.871     -2345758.1      845.00048      845.00048      845.00048      1577.4998      2422.5002      1577.4998      2422.5002      1577.4998      2422.5002      6.0335214e+08  0.25           945000         0              0              0              0
Averages over the last 7 of 13 rows, steps 3630000 to 3660000:
Temp Press PotEng Density KinEng TotEng Lx Ly Lz Xlo Xhi Ylo Yhi Zlo Zhi Volume Dt
328.983 0.942676 -2.64744e+06 0.741744 979.655 -2.64646e+06 815.092 815.092 815.092 1592.45 2407.55 1592.45 2407.55 1592.45 2407.55 5.41553e+08 0.25
Loop time of 3.2678 on 4 procs for 60000 steps with 1000 atoms

# run_style
run_style verlet

# write restart
write_restart ./pgnpmf/91/equpmf18.res
System init for write_restart ...
Generated 0 of 1 mixed pair_coeff terms from geometric mixing rule
