LAMMPS (23 Jun 2022 - Update 1)
# Read restart
read_restart ./pgnpmf/10000/equpmf29.res
Reading restart file ...
  restart file = 23 Jun 2022, LAMMPS = 23 Jun 2022
  restoring atom style atomic from restart
  orthogonal box = (2258.0227 2258.0227 2258.0227) to (2741.9773 2741.9773 2741.9773)
  restoring pair style table from restart
  1000 atoms
  read_restart CPU = 0.019 seconds

# Settings

pair_style table spline 9941

pair_coeff 1 1 ./pgnpmf/N20.txt DE_GNP 75.6
pair_coeff 2 2 ./pgnpmf/N100.txt DE_GNP 115.92
pair_coeff 1 2 ./pgnpmf/mixed_potential.txt DE_GNP 95.66

#Neigh_list Calc Frequency

neigh_modify delay 0 every 1 check yes

# Saving Frequency (50 frames)

variable ts_save equal 5000

# Dump
#dump_modify 1 first no sort id
#dump 2 all cfg 50000 ./equilibration/trajectory/ovito/dumpgen.tens_*.cfg mass type xs ys zs fx fy fz

# thermo_style
thermo_style custom step temp press pe density ke etotal lx ly lz xlo xhi ylo yhi zlo zhi vol dt time cpu tpcpu spcpu cpuremain

# run info
timestep 0.5
thermo 200

# fix

fix 1 all momentum 1000 linear 1 1 1 angular
variable T equal 300
fix 2 all nvt temp 300 370000 100.0

run 100000
Generated 0 of 1 mixed pair_coeff terms from geometric mixing rule
Unused restart file global fix info:
  fix style: npt, fix ID: 5
  update every 1 steps, delay 0 steps, check yes
Step          Temp          Press          PotEng        Density         KinEng         TotEng           Lx             Ly             Lz            Xlo            Xhi            Ylo            Yhi            Zlo            Zhi           Volume           Dt            Time           CPU           T/CPU          S/CPU         CPULeft
20305000   295.46163     -4.2201572     -5866082.2      3.2500982      879.83429     -5865202.4      483.95464      483.95464      483.95464      2258.0227      2741.9773      2258.0227      2741.9773      2258.0227      2741.9773      1.1334803e+08  0.5            10155000       0              0              0              0
Averages over the last 251 of 501 rows, steps 20355000 to 20405000:
Temp Press PotEng Density KinEng TotEng Lx Ly Lz Xlo Xhi Ylo Yhi Zlo Zhi Volume Dt
277267 5441.94 -5.38622e+06 3.2501 825653 -4.56056e+06 483.955 483.955 483.955 2258.02 2741.98 2258.02 2741.98 2258.02 2741.98 1.13348e+08 0.5
Loop time of 19.1855 on 4 procs for 100000 steps with 1000 atoms

unfix 2

fix 3 all nvt temp 370000 370000 $(100.0*dt) #iso 1.0 1.0 $(1000.0*dt)
fix 3 all nvt temp 370000 370000 50

run 200000
Generated 0 of 1 mixed pair_coeff terms from geometric mixing rule
Step          Temp          Press          PotEng        Density         KinEng         TotEng           Lx             Ly             Lz            Xlo            Xhi            Ylo            Yhi            Zlo            Zhi           Volume           Dt            Time           CPU           T/CPU          S/CPU         CPULeft
20405000   368995.87      6710.9662     -5177474.1      3.2500982      1098806.7     -4078667.4      483.95464      483.95464      483.95464      2258.0227      2741.9773      2258.0227      2741.9773      2258.0227      2741.9773      1.1334803e+08  0.5            10205000       0              0              0              0
Averages over the last 501 of 1001 rows, steps 20505000 to 20605000:
Temp Press PotEng Density KinEng TotEng Lx Ly Lz Xlo Xhi Ylo Yhi Zlo Zhi Volume Dt
369869 6791.77 -5.15422e+06 3.2501 1.10141e+06 -4.05282e+06 483.955 483.955 483.955 2258.02 2741.98 2258.02 2741.98 2258.02 2741.98 1.13348e+08 0.5
Loop time of 39.0921 on 4 procs for 200000 steps with 1000 atoms

unfix 3

fix 4 all nvt temp 370000 300 100.0

run 100000
Generated 0 of 1 mixed pair_coeff terms from geometric mixing rule
Step          Temp          Press          PotEng        Density         KinEng         TotEng           Lx             Ly             Lz            Xlo            Xhi            Ylo            Yhi            Zlo            Zhi           Volume           Dt            Time           CPU           T/CPU          S/CPU         CPULeft
20605000   362869.67      6769.0143     -5158871.3      3.2500982      1080563.9     -4078307.4      483.95464      483.95464      483.95464      2258.0227      2741.9773      2258.0227      2741.9773      2258.0227      2741.9773      1.1334803e+08  0.5            10305000       0              0              0              0
Averages over the last 251 of 501 rows, steps 20655000 to 20705000:
Temp Press PotEng Density KinEng TotEng Lx Ly Lz Xlo Xhi Ylo Yhi Zlo Zhi Volume Dt
93051.3 1714.87 -5.82566e+06 3.2501 277091 -5.54857e+06 483.955 483.955 483.955 2258.02 2741.98 2258.02 2741.98 2258.02 2741.98 1.13348e+08 0.5
Loop time of 19.3212 on 4 procs for 100000 steps with 1000 atoms

unfix 4

fix 5 all npt temp 300 300 $(100.0*dt) iso 1.0 1.0 $(1000.0*dt)
fix 5 all npt temp 300 300 50 iso 1.0 1.0 $(1000.0*dt)
fix 5 all npt temp 300 300 50 iso 1.0 1.0 500

run 300000
Generated 0 of 1 mixed pair_coeff terms from geometric mixing rule
Step          Temp          Press          PotEng        Density         KinEng         TotEng           Lx             Ly             Lz            Xlo            Xhi            Ylo            Yhi            Zlo            Zhi           Volume           Dt            Time           CPU           T/CPU          S/CPU         CPULeft
20705000   1400.5764     -99.162769     -5947147.4      3.2500982      4170.6773     -5942976.8      483.95464      483.95464      483.95464      2258.0227      2741.9773      2258.0227      2741.9773      2258.0227      2741.9773      1.1334803e+08  0.5            10355000       0              0              0              0
Averages over the last 751 of 1501 rows, steps 20855000 to 21005000:
Temp Press PotEng Density KinEng TotEng Lx Ly Lz Xlo Xhi Ylo Yhi Zlo Zhi Volume Dt
299.979 0.929361 -5.86485e+06 3.25251 893.287 -5.86396e+06 483.835 483.835 483.835 2258.08 2741.92 2258.08 2741.92 2258.08 2741.92 1.13264e+08 0.5
Loop time of 67.0571 on 4 procs for 300000 steps with 1000 atoms

# run_style
run_style verlet

# write restart
write_restart ./pgnpmf/10000/equpmf30.res
System init for write_restart ...
Generated 0 of 1 mixed pair_coeff terms from geometric mixing rule
