LAMMPS (23 Jun 2022 - Update 1)
# Read restart
read_restart ./pgnpmf/10000/equpmf32.res
Reading restart file ...
  restart file = 23 Jun 2022, LAMMPS = 23 Jun 2022
  restoring atom style atomic from restart
  orthogonal box = (2258.0673 2258.0673 2258.0673) to (2741.9327 2741.9327 2741.9327)
  restoring pair style table from restart
  1000 atoms
  read_restart CPU = 0.013 seconds

# Settings

pair_style table spline 9941

pair_coeff 1 1 ./pgnpmf/N20.txt DE_GNP 75.6
pair_coeff 2 2 ./pgnpmf/N100.txt DE_GNP 115.92
pair_coeff 1 2 ./pgnpmf/mixed_potential.txt DE_GNP 95.66

#Neigh_list Calc Frequency

neigh_modify delay 0 every 1 check yes

# Saving Frequency (50 frames)

variable ts_save equal 5000

# Dump
#dump_modify 1 first no sort id
#dump 2 all cfg 50000 ./equilibration/trajectory/ovito/dumpgen.tens_*.cfg mass type xs ys zs fx fy fz

# thermo_style
thermo_style custom step temp press pe density ke etotal lx ly lz xlo xhi ylo yhi zlo zhi vol dt time cpu tpcpu spcpu cpuremain

# run info
timestep 0.5
thermo 200

# fix

fix 1 all momentum 1000 linear 1 1 1 angular
variable T equal 300
fix 2 all nvt temp 300 370000 100.0

run 100000
Generated 0 of 1 mixed pair_coeff terms from geometric mixing rule
Unused restart file global fix info:
  fix style: npt, fix ID: 5
  update every 1 steps, delay 0 steps, check yes
Step          Temp          Press          PotEng        Density         KinEng         TotEng           Lx             Ly             Lz            Xlo            Xhi            Ylo            Yhi            Zlo            Zhi           Volume           Dt            Time           CPU           T/CPU          S/CPU         CPULeft
22405000   306.36364      3.4526198     -5858513.3      3.2518958      912.29861     -5857601        483.86545      483.86545      483.86545      2258.0673      2741.9327      2258.0673      2741.9327      2258.0673      2741.9327      1.1328537e+08  0.5            11205000       0              0              0              0
Averages over the last 251 of 501 rows, steps 22455000 to 22505000:
Temp Press PotEng Density KinEng TotEng Lx Ly Lz Xlo Xhi Ylo Yhi Zlo Zhi Volume Dt
277501 5268.17 -5.39578e+06 3.2519 826350 -4.56943e+06 483.865 483.865 483.865 2258.07 2741.93 2258.07 2741.93 2258.07 2741.93 1.13285e+08 0.5
Loop time of 19.3322 on 4 procs for 100000 steps with 1000 atoms

unfix 2

fix 3 all nvt temp 370000 370000 $(100.0*dt) #iso 1.0 1.0 $(1000.0*dt)
fix 3 all nvt temp 370000 370000 50

run 200000
Generated 0 of 1 mixed pair_coeff terms from geometric mixing rule
Step          Temp          Press          PotEng        Density         KinEng         TotEng           Lx             Ly             Lz            Xlo            Xhi            Ylo            Yhi            Zlo            Zhi           Volume           Dt            Time           CPU           T/CPU          S/CPU         CPULeft
22505000   384251.75      6781.7029     -5180226.7      3.2518958      1144236.1     -4035990.6      483.86545      483.86545      483.86545      2258.0673      2741.9327      2258.0673      2741.9327      2258.0673      2741.9327      1.1328537e+08  0.5            11255000       0              0              0              0
Averages over the last 501 of 1001 rows, steps 22605000 to 22705000:
Temp Press PotEng Density KinEng TotEng Lx Ly Lz Xlo Xhi Ylo Yhi Zlo Zhi Volume Dt
369819 6828.81 -5.15198e+06 3.2519 1.10126e+06 -4.05072e+06 483.865 483.865 483.865 2258.07 2741.93 2258.07 2741.93 2258.07 2741.93 1.13285e+08 0.5
Loop time of 38.792 on 4 procs for 200000 steps with 1000 atoms

unfix 3

fix 4 all nvt temp 370000 300 100.0

run 100000
Generated 0 of 1 mixed pair_coeff terms from geometric mixing rule
Step          Temp          Press          PotEng        Density         KinEng         TotEng           Lx             Ly             Lz            Xlo            Xhi            Ylo            Yhi            Zlo            Zhi           Volume           Dt            Time           CPU           T/CPU          S/CPU         CPULeft
22705000   366530.13      6724.4572     -5174493        3.2518958      1091464.1     -4083028.8      483.86545      483.86545      483.86545      2258.0673      2741.9327      2258.0673      2741.9327      2258.0673      2741.9327      1.1328537e+08  0.5            11355000       0              0              0              0
Averages over the last 251 of 501 rows, steps 22755000 to 22805000:
Temp Press PotEng Density KinEng TotEng Lx Ly Lz Xlo Xhi Ylo Yhi Zlo Zhi Volume Dt
93021.8 1735 -5.82582e+06 3.2519 277003 -5.54882e+06 483.865 483.865 483.865 2258.07 2741.93 2258.07 2741.93 2258.07 2741.93 1.13285e+08 0.5
Loop time of 19.2573 on 4 procs for 100000 steps with 1000 atoms

unfix 4

fix 5 all npt temp 300 300 $(100.0*dt) iso 1.0 1.0 $(1000.0*dt)
fix 5 all npt temp 300 300 50 iso 1.0 1.0 $(1000.0*dt)
fix 5 all npt temp 300 300 50 iso 1.0 1.0 500

run 300000
Generated 0 of 1 mixed pair_coeff terms from geometric mixing rule
Step          Temp          Press          PotEng        Density         KinEng         TotEng           Lx             Ly             Lz            Xlo            Xhi            Ylo            Yhi            Zlo            Zhi           Volume           Dt            Time           CPU           T/CPU          S/CPU         CPULeft
22805000   1418.3268     -91.16725      -5942452.8      3.2518958      4223.535      -5938229.2      483.86545      483.86545      483.86545      2258.0673      2741.9327      2258.0673      2741.9327      2258.0673      2741.9327      1.1328537e+08  0.5            11405000       0              0              0              0
Averages over the last 751 of 1501 rows, steps 22955000 to 23105000:
Temp Press PotEng Density KinEng TotEng Lx Ly Lz Xlo Xhi Ylo Yhi Zlo Zhi Volume Dt
299.875 1.07362 -5.85952e+06 3.25208 892.977 -5.85863e+06 483.856 483.856 483.856 2258.07 2741.93 2258.07 2741.93 2258.07 2741.93 1.13279e+08 0.5
Loop time of 66.8087 on 4 procs for 300000 steps with 1000 atoms

# run_style
run_style verlet

# write restart
write_restart ./pgnpmf/10000/equpmf33.res
System init for write_restart ...
Generated 0 of 1 mixed pair_coeff terms from geometric mixing rule
