LAMMPS (23 Jun 2022 - Update 1)
# Read restart
read_restart ./pgnpmf/10000/equpmf67.res
Reading restart file ...
  restart file = 23 Jun 2022, LAMMPS = 23 Jun 2022
  restoring atom style atomic from restart
  orthogonal box = (2258.057 2258.057 2258.057) to (2741.943 2741.943 2741.943)
  restoring pair style table from restart
  1000 atoms
  read_restart CPU = 0.013 seconds

# Settings

pair_style table spline 9941

pair_coeff 1 1 ./pgnpmf/N20.txt DE_GNP 75.6
pair_coeff 2 2 ./pgnpmf/N100.txt DE_GNP 115.92
pair_coeff 1 2 ./pgnpmf/mixed_potential.txt DE_GNP 95.66

#Neigh_list Calc Frequency

neigh_modify delay 0 every 1 check yes

# Saving Frequency (50 frames)

variable ts_save equal 5000

# Dump
#dump_modify 1 first no sort id
#dump 2 all cfg 50000 ./equilibration/trajectory/ovito/dumpgen.tens_*.cfg mass type xs ys zs fx fy fz

# thermo_style
thermo_style custom step temp press pe density ke etotal lx ly lz xlo xhi ylo yhi zlo zhi vol dt time cpu tpcpu spcpu cpuremain

# run info
timestep 0.5
thermo 200

# fix

fix 1 all momentum 1000 linear 1 1 1 angular
variable T equal 300
fix 2 all nvt temp 300 370000 100.0

run 100000
Generated 0 of 1 mixed pair_coeff terms from geometric mixing rule
Unused restart file global fix info:
  fix style: npt, fix ID: 5
  update every 1 steps, delay 0 steps, check yes
Step          Temp          Press          PotEng        Density         KinEng         TotEng           Lx             Ly             Lz            Xlo            Xhi            Ylo            Yhi            Zlo            Zhi           Volume           Dt            Time           CPU           T/CPU          S/CPU         CPULeft
46905000   305.38829     -0.051182941   -5865710        3.251482       909.39418     -5864800.6      483.88597      483.88597      483.88597      2258.057       2741.943       2258.057       2741.943       2258.057       2741.943       1.1329979e+08  0.5            23455000       0              0              0              0
Averages over the last 251 of 501 rows, steps 46955000 to 47005000:
Temp Press PotEng Density KinEng TotEng Lx Ly Lz Xlo Xhi Ylo Yhi Zlo Zhi Volume Dt
277429 5341.08 -5.38991e+06 3.25148 826136 -4.56377e+06 483.886 483.886 483.886 2258.06 2741.94 2258.06 2741.94 2258.06 2741.94 1.133e+08 0.5
Loop time of 19.3775 on 4 procs for 100000 steps with 1000 atoms

unfix 2

fix 3 all nvt temp 370000 370000 $(100.0*dt) #iso 1.0 1.0 $(1000.0*dt)
fix 3 all nvt temp 370000 370000 50

run 200000
Generated 0 of 1 mixed pair_coeff terms from geometric mixing rule
Step          Temp          Press          PotEng        Density         KinEng         TotEng           Lx             Ly             Lz            Xlo            Xhi            Ylo            Yhi            Zlo            Zhi           Volume           Dt            Time           CPU           T/CPU          S/CPU         CPULeft
47005000   377506.22      7187.5502     -5091308.6      3.251482       1124149.1     -3967159.5      483.88597      483.88597      483.88597      2258.057       2741.943       2258.057       2741.943       2258.057       2741.943       1.1329979e+08  0.5            23505000       0              0              0              0
Averages over the last 501 of 1001 rows, steps 47105000 to 47205000:
Temp Press PotEng Density KinEng TotEng Lx Ly Lz Xlo Xhi Ylo Yhi Zlo Zhi Volume Dt
370230 6851.2 -5.14445e+06 3.25148 1.10248e+06 -4.04197e+06 483.886 483.886 483.886 2258.06 2741.94 2258.06 2741.94 2258.06 2741.94 1.133e+08 0.5
Loop time of 39.3777 on 4 procs for 200000 steps with 1000 atoms

unfix 3

fix 4 all nvt temp 370000 300 100.0

run 100000
Generated 0 of 1 mixed pair_coeff terms from geometric mixing rule
Step          Temp          Press          PotEng        Density         KinEng         TotEng           Lx             Ly             Lz            Xlo            Xhi            Ylo            Yhi            Zlo            Zhi           Volume           Dt            Time           CPU           T/CPU          S/CPU         CPULeft
47205000   373741.75      7073.5307     -5112961.3      3.251482       1112939.1     -4000022.2      483.88597      483.88597      483.88597      2258.057       2741.943       2258.057       2741.943       2258.057       2741.943       1.1329979e+08  0.5            23605000       0              0              0              0
Averages over the last 251 of 501 rows, steps 47255000 to 47305000:
Temp Press PotEng Density KinEng TotEng Lx Ly Lz Xlo Xhi Ylo Yhi Zlo Zhi Volume Dt
93081.8 1737.97 -5.82559e+06 3.25148 277182 -5.54841e+06 483.886 483.886 483.886 2258.06 2741.94 2258.06 2741.94 2258.06 2741.94 1.133e+08 0.5
Loop time of 19.381 on 4 procs for 100000 steps with 1000 atoms

unfix 4

fix 5 all npt temp 300 300 $(100.0*dt) iso 1.0 1.0 $(1000.0*dt)
fix 5 all npt temp 300 300 50 iso 1.0 1.0 $(1000.0*dt)
fix 5 all npt temp 300 300 50 iso 1.0 1.0 500

run 300000
Generated 0 of 1 mixed pair_coeff terms from geometric mixing rule
Step          Temp          Press          PotEng        Density         KinEng         TotEng           Lx             Ly             Lz            Xlo            Xhi            Ylo            Yhi            Zlo            Zhi           Volume           Dt            Time           CPU           T/CPU          S/CPU         CPULeft
47305000   1408.4024     -118.47817     -5944580.4      3.251482       4193.982      -5940386.4      483.88597      483.88597      483.88597      2258.057       2741.943       2258.057       2741.943       2258.057       2741.943       1.1329979e+08  0.5            23655000       0              0              0              0
Averages over the last 751 of 1501 rows, steps 47455000 to 47605000:
Temp Press PotEng Density KinEng TotEng Lx Ly Lz Xlo Xhi Ylo Yhi Zlo Zhi Volume Dt
300.143 1.23895 -5.86635e+06 3.25237 893.774 -5.86546e+06 483.842 483.842 483.842 2258.08 2741.92 2258.08 2741.92 2258.08 2741.92 1.13269e+08 0.5
Loop time of 68.0204 on 4 procs for 300000 steps with 1000 atoms

# run_style
run_style verlet

# write restart
write_restart ./pgnpmf/10000/equpmf68.res
System init for write_restart ...
Generated 0 of 1 mixed pair_coeff terms from geometric mixing rule
