LAMMPS (23 Jun 2022 - Update 1)
# Read restart
read_restart ./pgnpmf/10000/equpmf11.res
Reading restart file ...
  restart file = 23 Jun 2022, LAMMPS = 23 Jun 2022
  restoring atom style atomic from restart
  orthogonal box = (2249.4832 2249.4832 2249.4832) to (2750.5168 2750.5168 2750.5168)
  restoring pair style table from restart
  1000 atoms
  read_restart CPU = 0.018 seconds

# Settings

pair_style table spline 9941

pair_coeff 1 1 ./pgnpmf/N20.txt DE_GNP 75.6
pair_coeff 2 2 ./pgnpmf/N100.txt DE_GNP 115.92
pair_coeff 1 2 ./pgnpmf/mixed_potential.txt DE_GNP 95.66

#Neigh_list Calc Frequency

neigh_modify delay 0 every 1 check yes

# Saving Frequency (50 frames)

variable ts_save equal 5000

# Dump
#dump_modify 1 first no sort id
#dump 2 all cfg 50000 ./equilibration/trajectory/ovito/dumpgen.tens_*.cfg mass type xs ys zs fx fy fz

# thermo_style
thermo_style custom step temp press pe density ke etotal lx ly lz xlo xhi ylo yhi zlo zhi vol dt time cpu tpcpu spcpu cpuremain

# run info
timestep 0.5
thermo 200

# fix

fix 1 all momentum 1000 linear 1 1 1 angular
variable T equal 300
fix 2 all nvt temp 300 370000 100.0

run 100000
Generated 0 of 1 mixed pair_coeff terms from geometric mixing rule
Unused restart file global fix info:
  fix style: npt, fix ID: 5
  update every 1 steps, delay 0 steps, check yes
Step          Temp          Press          PotEng        Density         KinEng         TotEng           Lx             Ly             Lz            Xlo            Xhi            Ylo            Yhi            Zlo            Zhi           Volume           Dt            Time           CPU           T/CPU          S/CPU         CPULeft
7705000   306.58767      9.5396828     -5425319.6      2.9289373      912.96572     -5424406.7      501.03353      501.03353      501.03353      2249.4832      2750.5168      2249.4832      2750.5168      2249.4832      2750.5168      1.2577675e+08  0.5            3855000        0              0              0              0
Averages over the last 251 of 501 rows, steps 7755000 to 7805000:
Temp Press PotEng Density KinEng TotEng Lx Ly Lz Xlo Xhi Ylo Yhi Zlo Zhi Volume Dt
277110 4327.78 -4.72439e+06 2.92894 825186 -3.8992e+06 501.034 501.034 501.034 2249.48 2750.52 2249.48 2750.52 2249.48 2750.52 1.25777e+08 0.5
Loop time of 19.7242 on 4 procs for 100000 steps with 1000 atoms

unfix 2

fix 3 all nvt temp 370000 370000 $(100.0*dt) #iso 1.0 1.0 $(1000.0*dt)
fix 3 all nvt temp 370000 370000 50

run 200000
Generated 0 of 1 mixed pair_coeff terms from geometric mixing rule
Step          Temp          Press          PotEng        Density         KinEng         TotEng           Lx             Ly             Lz            Xlo            Xhi            Ylo            Yhi            Zlo            Zhi           Volume           Dt            Time           CPU           T/CPU          S/CPU         CPULeft
7805000   362766.75      5645.5604     -4478183.5      2.9289373      1080257.4     -3397926        501.03353      501.03353      501.03353      2249.4832      2750.5168      2249.4832      2750.5168      2249.4832      2750.5168      1.2577675e+08  0.5            3905000        0              0              0              0
Averages over the last 501 of 1001 rows, steps 7905000 to 8005000:
Temp Press PotEng Density KinEng TotEng Lx Ly Lz Xlo Xhi Ylo Yhi Zlo Zhi Volume Dt
370065 5390.04 -4.51001e+06 2.92894 1.10199e+06 -3.40802e+06 501.034 501.034 501.034 2249.48 2750.52 2249.48 2750.52 2249.48 2750.52 1.25777e+08 0.5
Loop time of 40.037 on 4 procs for 200000 steps with 1000 atoms

unfix 3

fix 4 all nvt temp 370000 300 100.0

run 100000
Generated 0 of 1 mixed pair_coeff terms from geometric mixing rule
Step          Temp          Press          PotEng        Density         KinEng         TotEng           Lx             Ly             Lz            Xlo            Xhi            Ylo            Yhi            Zlo            Zhi           Volume           Dt            Time           CPU           T/CPU          S/CPU         CPULeft
8005000   360252.7       5452.7127     -4490394.9      2.9289373      1072771       -3417623.9      501.03353      501.03353      501.03353      2249.4832      2750.5168      2249.4832      2750.5168      2249.4832      2750.5168      1.2577675e+08  0.5            4005000        0              0              0              0
Averages over the last 251 of 501 rows, steps 8055000 to 8105000:
Temp Press PotEng Density KinEng TotEng Lx Ly Lz Xlo Xhi Ylo Yhi Zlo Zhi Volume Dt
93060.7 1390.22 -5.18296e+06 2.92894 277119 -4.90585e+06 501.034 501.034 501.034 2249.48 2750.52 2249.48 2750.52 2249.48 2750.52 1.25777e+08 0.5
Loop time of 19.6732 on 4 procs for 100000 steps with 1000 atoms

unfix 4

fix 5 all npt temp 300 300 $(100.0*dt) iso 1.0 1.0 $(1000.0*dt)
fix 5 all npt temp 300 300 50 iso 1.0 1.0 $(1000.0*dt)
fix 5 all npt temp 300 300 50 iso 1.0 1.0 500

run 300000
Generated 0 of 1 mixed pair_coeff terms from geometric mixing rule
Step          Temp          Press          PotEng        Density         KinEng         TotEng           Lx             Ly             Lz            Xlo            Xhi            Ylo            Yhi            Zlo            Zhi           Volume           Dt            Time           CPU           T/CPU          S/CPU         CPULeft
8105000   1397.5684     -240.81114     -5418932        2.9289373      4161.72       -5414770.3      501.03353      501.03353      501.03353      2249.4832      2750.5168      2249.4832      2750.5168      2249.4832      2750.5168      1.2577675e+08  0.5            4055000        0              0              0              0
Averages over the last 751 of 1501 rows, steps 8255000 to 8405000:
Temp Press PotEng Density KinEng TotEng Lx Ly Lz Xlo Xhi Ylo Yhi Zlo Zhi Volume Dt
300.098 1.25696 -5.50215e+06 2.9586 893.64 -5.50126e+06 499.354 499.354 499.354 2250.32 2749.68 2250.32 2749.68 2250.32 2749.68 1.24516e+08 0.5
Loop time of 70.646 on 4 procs for 300000 steps with 1000 atoms

# run_style
run_style verlet

# write restart
write_restart ./pgnpmf/10000/equpmf12.res
System init for write_restart ...
Generated 0 of 1 mixed pair_coeff terms from geometric mixing rule
