LAMMPS (23 Jun 2022 - Update 1)
# Read restart
read_restart ./pgnpmf/37/equpmf35.res
Reading restart file ...
  restart file = 23 Jun 2022, LAMMPS = 23 Jun 2022
  restoring atom style atomic from restart
  orthogonal box = (2028.6264 2028.6264 2028.6264) to (2971.3736 2971.3736 2971.3736)
  restoring pair style table from restart
  996 atoms
  read_restart CPU = 0.006 seconds

# Settings

pair_style table spline 9941

pair_coeff 1 1 ./pgnpmf/N20.txt DE_GNP 75.6
pair_coeff 2 2 ./pgnpmf/N100.txt DE_GNP 115.92
pair_coeff 1 2 ./pgnpmf/mixed_potential.txt DE_GNP 95.66

#Neigh_list Calc Frequency

neigh_modify delay 0 every 1 check yes

# Saving Frequency (50 frames)

variable ts_save equal 5000

# Dump
#dump_modify 1 first no sort id
dump 2 all cfg 50000 ./pgnpmf/37/equilibration/trajectory/dumpgen.tens_*.cfg mass type xs ys zs fx fy fz
dump_modify 2 element N20 N100

# thermo_style
thermo_style custom step temp press pe density ke etotal lx ly lz xlo xhi ylo yhi zlo zhi vol dt time cpu tpcpu spcpu cpuremain

# run info
timestep 0.5
thermo 200

# fix

fix 1 all momentum 1000 linear 1 1 1 angular
variable T equal 300
fix 2 all nvt temp 300 370000 100.0

run 100000
Generated 0 of 1 mixed pair_coeff terms from geometric mixing rule
Unused restart file global fix info:
  fix style: npt, fix ID: 5
  update every 1 steps, delay 0 steps, check yes
Step          Temp          Press          PotEng        Density         KinEng         TotEng           Lx             Ly             Lz            Xlo            Xhi            Ylo            Yhi            Zlo            Zhi           Volume           Dt            Time           CPU           T/CPU          S/CPU         CPULeft
24505000   307.03599      0.93214822    -37015819       0.71405367     910.63988     -37014908       942.74726      942.74726      942.74726      2028.6264      2971.3736      2028.6264      2971.3736      2028.6264      2971.3736      8.3788774e+08  0.5            12255000       0              0              0              0
Averages over the last 251 of 501 rows, steps 24555000 to 24605000:
Temp Press PotEng Density KinEng TotEng Lx Ly Lz Xlo Xhi Ylo Yhi Zlo Zhi Volume Dt
277643 66.5239 -3.64449e+07 0.714054 823462 -3.56214e+07 942.747 942.747 942.747 2028.63 2971.37 2028.63 2971.37 2028.63 2971.37 8.37888e+08 0.5
Loop time of 9.55285 on 4 procs for 100000 steps with 996 atoms

unfix 2

fix 3 all nvt temp 370000 370000 $(100.0*dt) #iso 1.0 1.0 $(1000.0*dt)
fix 3 all nvt temp 370000 370000 50

run 200000
Generated 0 of 1 mixed pair_coeff terms from geometric mixing rule
Step          Temp          Press          PotEng        Density         KinEng         TotEng           Lx             Ly             Lz            Xlo            Xhi            Ylo            Yhi            Zlo            Zhi           Volume           Dt            Time           CPU           T/CPU          S/CPU         CPULeft
24605000   358871.84      70.234295     -35911347       0.71405367     1064380.1     -34846967       942.74726      942.74726      942.74726      2028.6264      2971.3736      2028.6264      2971.3736      2028.6264      2971.3736      8.3788774e+08  0.5            12305000       0              0              0              0
Averages over the last 501 of 1001 rows, steps 24705000 to 24805000:
Temp Press PotEng Density KinEng TotEng Lx Ly Lz Xlo Xhi Ylo Yhi Zlo Zhi Volume Dt
370313 36.9417 -3.549e+07 0.714054 1.09831e+06 -3.43917e+07 942.747 942.747 942.747 2028.63 2971.37 2028.63 2971.37 2028.63 2971.37 8.37888e+08 0.5
Loop time of 18.8056 on 4 procs for 200000 steps with 996 atoms

unfix 3

fix 4 all nvt temp 370000 300 100.0

run 100000
Generated 0 of 1 mixed pair_coeff terms from geometric mixing rule
Step          Temp          Press          PotEng        Density         KinEng         TotEng           Lx             Ly             Lz            Xlo            Xhi            Ylo            Yhi            Zlo            Zhi           Volume           Dt            Time           CPU           T/CPU          S/CPU         CPULeft
24805000   363881.48     -18.247405     -35513380       0.71405367     1079238.3     -34434142       942.74726      942.74726      942.74726      2028.6264      2971.3736      2028.6264      2971.3736      2028.6264      2971.3736      8.3788774e+08  0.5            12405000       0              0              0              0
Averages over the last 251 of 501 rows, steps 24855000 to 24905000:
Temp Press PotEng Density KinEng TotEng Lx Ly Lz Xlo Xhi Ylo Yhi Zlo Zhi Volume Dt
93153.7 -192.681 -3.6636e+07 0.714054 276285 -3.63597e+07 942.747 942.747 942.747 2028.63 2971.37 2028.63 2971.37 2028.63 2971.37 8.37888e+08 0.5
Loop time of 9.37581 on 4 procs for 100000 steps with 996 atoms

unfix 4

fix 5 all npt temp 300 300 $(100.0*dt) iso 1.0 1.0 $(1000.0*dt)
fix 5 all npt temp 300 300 50 iso 1.0 1.0 $(1000.0*dt)
fix 5 all npt temp 300 300 50 iso 1.0 1.0 500

run 300000
Generated 0 of 1 mixed pair_coeff terms from geometric mixing rule
Step          Temp          Press          PotEng        Density         KinEng         TotEng           Lx             Ly             Lz            Xlo            Xhi            Ylo            Yhi            Zlo            Zhi           Volume           Dt            Time           CPU           T/CPU          S/CPU         CPULeft
24905000   1353.9341     -220.29785     -37147298       0.71405367     4015.6412     -37143282       942.74726      942.74726      942.74726      2028.6264      2971.3736      2028.6264      2971.3736      2028.6264      2971.3736      8.3788774e+08  0.5            12455000       0              0              0              0
Averages over the last 751 of 1501 rows, steps 25055000 to 25205000:
Temp Press PotEng Density KinEng TotEng Lx Ly Lz Xlo Xhi Ylo Yhi Zlo Zhi Volume Dt
308.209 1.04774 -3.76396e+07 0.738786 914.119 -3.76387e+07 932.109 932.109 932.109 2033.95 2966.05 2033.95 2966.05 2033.95 2966.05 8.09844e+08 0.5
Loop time of 34.6724 on 4 procs for 300000 steps with 996 atoms

# run_style
run_style verlet

# write restart
write_restart ./pgnpmf/37/equpmf36.res
System init for write_restart ...
Generated 0 of 1 mixed pair_coeff terms from geometric mixing rule
