LAMMPS (23 Jun 2022 - Update 1)
# Read restart
read_restart ./pgnpmf/37/equpmf65.res
Reading restart file ...
  restart file = 23 Jun 2022, LAMMPS = 23 Jun 2022
  restoring atom style atomic from restart
  orthogonal box = (2143.3982 2143.3982 2143.3982) to (2856.6018 2856.6018 2856.6018)
  restoring pair style table from restart
  996 atoms
  read_restart CPU = 0.012 seconds

# Settings

pair_style table spline 9941

pair_coeff 1 1 ./pgnpmf/N20.txt DE_GNP 75.6
pair_coeff 2 2 ./pgnpmf/N100.txt DE_GNP 115.92
pair_coeff 1 2 ./pgnpmf/mixed_potential.txt DE_GNP 95.66

#Neigh_list Calc Frequency

neigh_modify delay 0 every 1 check yes

# Saving Frequency (50 frames)

variable ts_save equal 5000

# Dump
#dump_modify 1 first no sort id
dump 2 all cfg 50000 ./pgnpmf/37/equilibration/trajectory/dumpgen.tens_*.cfg mass type xs ys zs fx fy fz
dump_modify 2 element N20 N100

# thermo_style
thermo_style custom step temp press pe density ke etotal lx ly lz xlo xhi ylo yhi zlo zhi vol dt time cpu tpcpu spcpu cpuremain

# run info
timestep 0.1
thermo 200

# fix

fix 1 all momentum 1000 linear 1 1 1 angular
variable T equal 300
fix 2 all nvt temp 300 370000 100.0

run 100000
Generated 0 of 1 mixed pair_coeff terms from geometric mixing rule
Unused restart file global fix info:
  fix style: npt, fix ID: 5
  update every 1 steps, delay 0 steps, check yes
Step          Temp          Press          PotEng        Density         KinEng         TotEng           Lx             Ly             Lz            Xlo            Xhi            Ylo            Yhi            Zlo            Zhi           Volume           Dt            Time           CPU           T/CPU          S/CPU         CPULeft
45505000   305.33658     -4.0337329     -42952655       1.6492102      905.59959     -42951750       713.20365      713.20365      713.20365      2143.3982      2856.6018      2143.3982      2856.6018      2143.3982      2856.6018      3.6277778e+08  0.1            15755000       0              0              0              0
Averages over the last 251 of 501 rows, steps 45555000 to 45605000:
Temp Press PotEng Density KinEng TotEng Lx Ly Lz Xlo Xhi Ylo Yhi Zlo Zhi Volume Dt
277836 676.797 -4.28257e+07 1.64921 824036 -4.20016e+07 713.204 713.204 713.204 2143.4 2856.6 2143.4 2856.6 2143.4 2856.6 3.62778e+08 0.1
Loop time of 7.46537 on 4 procs for 100000 steps with 996 atoms

unfix 2

fix 3 all nvt temp 370000 370000 $(100.0*dt) #iso 1.0 1.0 $(1000.0*dt)
fix 3 all nvt temp 370000 370000 10

run 200000
Generated 0 of 1 mixed pair_coeff terms from geometric mixing rule
Step          Temp          Press          PotEng        Density         KinEng         TotEng           Lx             Ly             Lz            Xlo            Xhi            Ylo            Yhi            Zlo            Zhi           Volume           Dt            Time           CPU           T/CPU          S/CPU         CPULeft
45605000   377917.89      1137.8221     -42608804       1.6492102      1120868.9     -41487935       713.20365      713.20365      713.20365      2143.3982      2856.6018      2143.3982      2856.6018      2143.3982      2856.6018      3.6277778e+08  0.1            15765000       0              0              0              0
Averages over the last 501 of 1001 rows, steps 45705000 to 45805000:
Temp Press PotEng Density KinEng TotEng Lx Ly Lz Xlo Xhi Ylo Yhi Zlo Zhi Volume Dt
370231 1515.54 -4.22904e+07 1.64921 1.09807e+06 -4.11923e+07 713.204 713.204 713.204 2143.4 2856.6 2143.4 2856.6 2143.4 2856.6 3.62778e+08 0.1
Loop time of 15.0841 on 4 procs for 200000 steps with 996 atoms

unfix 3

fix 4 all nvt temp 370000 300 100.0

run 100000
Generated 0 of 1 mixed pair_coeff terms from geometric mixing rule
Step          Temp          Press          PotEng        Density         KinEng         TotEng           Lx             Ly             Lz            Xlo            Xhi            Ylo            Yhi            Zlo            Zhi           Volume           Dt            Time           CPU           T/CPU          S/CPU         CPULeft
45805000   358170.38      1547.4336     -42304153       1.6492102      1062299.7     -41241854       713.20365      713.20365      713.20365      2143.3982      2856.6018      2143.3982      2856.6018      2143.3982      2856.6018      3.6277778e+08  0.1            15785000       0              0              0              0
Averages over the last 251 of 501 rows, steps 45855000 to 45905000:
Temp Press PotEng Density KinEng TotEng Lx Ly Lz Xlo Xhi Ylo Yhi Zlo Zhi Volume Dt
96468.8 370.763 -4.27474e+07 1.64921 286117 -4.24613e+07 713.204 713.204 713.204 2143.4 2856.6 2143.4 2856.6 2143.4 2856.6 3.62778e+08 0.1
Loop time of 7.50475 on 4 procs for 100000 steps with 996 atoms

unfix 4

fix 5 all npt temp 300 300 $(100.0*dt) iso 1.0 1.0 $(1000.0*dt)
fix 5 all npt temp 300 300 10 iso 1.0 1.0 $(1000.0*dt)
fix 5 all npt temp 300 300 10 iso 1.0 1.0 100

run 300000
Generated 0 of 1 mixed pair_coeff terms from geometric mixing rule
Step          Temp          Press          PotEng        Density         KinEng         TotEng           Lx             Ly             Lz            Xlo            Xhi            Ylo            Yhi            Zlo            Zhi           Volume           Dt            Time           CPU           T/CPU          S/CPU         CPULeft
45905000   5136.9555     -13.003081     -42889117       1.6492102      15235.727     -42873881       713.20365      713.20365      713.20365      2143.3982      2856.6018      2143.3982      2856.6018      2143.3982      2856.6018      3.6277778e+08  0.1            15795000       0              0              0              0
Averages over the last 751 of 1501 rows, steps 46055000 to 46205000:
Temp Press PotEng Density KinEng TotEng Lx Ly Lz Xlo Xhi Ylo Yhi Zlo Zhi Volume Dt
306.57 0.867015 -4.31349e+07 1.65886 909.259 -4.3134e+07 711.818 711.818 711.818 2144.09 2855.91 2144.09 2855.91 2144.09 2855.91 3.60668e+08 0.1
Loop time of 27.0903 on 4 procs for 300000 steps with 996 atoms

# run_style
run_style verlet

# write restart
write_restart ./pgnpmf/37/equpmf66.res
System init for write_restart ...
Generated 0 of 1 mixed pair_coeff terms from geometric mixing rule
