LAMMPS (23 Jun 2022 - Update 1)
# Read restart
read_restart ./pgnpmf/37/equpmf50.res
Reading restart file ...
  restart file = 23 Jun 2022, LAMMPS = 23 Jun 2022
  restoring atom style atomic from restart
  orthogonal box = (2113.7158 2113.7158 2113.7158) to (2886.2842 2886.2842 2886.2842)
  restoring pair style table from restart
  996 atoms
  read_restart CPU = 0.007 seconds

# Settings

pair_style table spline 9941

pair_coeff 1 1 ./pgnpmf/N20.txt DE_GNP 75.6
pair_coeff 2 2 ./pgnpmf/N100.txt DE_GNP 115.92
pair_coeff 1 2 ./pgnpmf/mixed_potential.txt DE_GNP 95.66

#Neigh_list Calc Frequency

neigh_modify delay 0 every 1 check yes

# Saving Frequency (50 frames)

variable ts_save equal 5000

# Dump
#dump_modify 1 first no sort id
dump 2 all cfg 50000 ./pgnpmf/37/equilibration/trajectory/dumpgen.tens_*.cfg mass type xs ys zs fx fy fz
dump_modify 2 element N20 N100

# thermo_style
thermo_style custom step temp press pe density ke etotal lx ly lz xlo xhi ylo yhi zlo zhi vol dt time cpu tpcpu spcpu cpuremain

# run info
timestep 0.1
thermo 200

# fix

fix 1 all momentum 1000 linear 1 1 1 angular
variable T equal 300
fix 2 all nvt temp 300 370000 100.0

run 100000
Generated 0 of 1 mixed pair_coeff terms from geometric mixing rule
Unused restart file global fix info:
  fix style: npt, fix ID: 5
  update every 1 steps, delay 0 steps, check yes
Step          Temp          Press          PotEng        Density         KinEng         TotEng           Lx             Ly             Lz            Xlo            Xhi            Ylo            Yhi            Zlo            Zhi           Volume           Dt            Time           CPU           T/CPU          S/CPU         CPULeft
35005000   307.43969      6.0724895     -39981172       1.2974954      911.83722     -39980260       772.56842      772.56842      772.56842      2113.7158      2886.2842      2113.7158      2886.2842      2113.7158      2886.2842      4.6111671e+08  0.1            14705000       0              0              0              0
Averages over the last 251 of 501 rows, steps 35055000 to 35105000:
Temp Press PotEng Density KinEng TotEng Lx Ly Lz Xlo Xhi Ylo Yhi Zlo Zhi Volume Dt
277172 465.776 -4.00012e+07 1.2975 822065 -3.91791e+07 772.568 772.568 772.568 2113.72 2886.28 2113.72 2886.28 2113.72 2886.28 4.61117e+08 0.1
Loop time of 7.15562 on 4 procs for 100000 steps with 996 atoms

unfix 2

fix 3 all nvt temp 370000 370000 $(100.0*dt) #iso 1.0 1.0 $(1000.0*dt)
fix 3 all nvt temp 370000 370000 10

run 200000
Generated 0 of 1 mixed pair_coeff terms from geometric mixing rule
Step          Temp          Press          PotEng        Density         KinEng         TotEng           Lx             Ly             Lz            Xlo            Xhi            Ylo            Yhi            Zlo            Zhi           Volume           Dt            Time           CPU           T/CPU          S/CPU         CPULeft
35105000   373851.97      867.94436     -39889328       1.2974954      1108809.8     -38780518       772.56842      772.56842      772.56842      2113.7158      2886.2842      2113.7158      2886.2842      2113.7158      2886.2842      4.6111671e+08  0.1            14715000       0              0              0              0
Averages over the last 501 of 1001 rows, steps 35205000 to 35305000:
Temp Press PotEng Density KinEng TotEng Lx Ly Lz Xlo Xhi Ylo Yhi Zlo Zhi Volume Dt
369575 790.06 -3.96202e+07 1.2975 1.09612e+06 -3.8524e+07 772.568 772.568 772.568 2113.72 2886.28 2113.72 2886.28 2113.72 2886.28 4.61117e+08 0.1
Loop time of 14.8515 on 4 procs for 200000 steps with 996 atoms

unfix 3

fix 4 all nvt temp 370000 300 100.0

run 100000
Generated 0 of 1 mixed pair_coeff terms from geometric mixing rule
Step          Temp          Press          PotEng        Density         KinEng         TotEng           Lx             Ly             Lz            Xlo            Xhi            Ylo            Yhi            Zlo            Zhi           Volume           Dt            Time           CPU           T/CPU          S/CPU         CPULeft
35305000   368985.33      629.19507     -39451709       1.2974954      1094375.8     -38357333       772.56842      772.56842      772.56842      2113.7158      2886.2842      2113.7158      2886.2842      2113.7158      2886.2842      4.6111671e+08  0.1            14735000       0              0              0              0
Averages over the last 251 of 501 rows, steps 35355000 to 35405000:
Temp Press PotEng Density KinEng TotEng Lx Ly Lz Xlo Xhi Ylo Yhi Zlo Zhi Volume Dt
96122.8 -246.238 -3.96761e+07 1.2975 285091 -3.9391e+07 772.568 772.568 772.568 2113.72 2886.28 2113.72 2886.28 2113.72 2886.28 4.61117e+08 0.1
Loop time of 7.30331 on 4 procs for 100000 steps with 996 atoms

unfix 4

fix 5 all npt temp 300 300 $(100.0*dt) iso 1.0 1.0 $(1000.0*dt)
fix 5 all npt temp 300 300 10 iso 1.0 1.0 $(1000.0*dt)
fix 5 all npt temp 300 300 10 iso 1.0 1.0 100

run 300000
Generated 0 of 1 mixed pair_coeff terms from geometric mixing rule
Step          Temp          Press          PotEng        Density         KinEng         TotEng           Lx             Ly             Lz            Xlo            Xhi            Ylo            Yhi            Zlo            Zhi           Volume           Dt            Time           CPU           T/CPU          S/CPU         CPULeft
35405000   5062.6453     -545.92742     -39811313       1.2974954      15015.33      -39796297       772.56842      772.56842      772.56842      2113.7158      2886.2842      2113.7158      2886.2842      2113.7158      2886.2842      4.6111671e+08  0.1            14745000       0              0              0              0
Averages over the last 751 of 1501 rows, steps 35555000 to 35705000:
Temp Press PotEng Density KinEng TotEng Lx Ly Lz Xlo Xhi Ylo Yhi Zlo Zhi Volume Dt
308.236 0.914008 -4.0281e+07 1.32975 914.199 -4.02801e+07 766.272 766.272 766.272 2116.86 2883.14 2116.86 2883.14 2116.86 2883.14 4.49934e+08 0.1
Loop time of 26.3683 on 4 procs for 300000 steps with 996 atoms

# run_style
run_style verlet

# write restart
write_restart ./pgnpmf/37/equpmf51.res
System init for write_restart ...
Generated 0 of 1 mixed pair_coeff terms from geometric mixing rule
