LAMMPS (23 Jun 2022 - Update 1)
# Read restart
read_restart ./pgnpmf/37/equpmf56.res
Reading restart file ...
  restart file = 23 Jun 2022, LAMMPS = 23 Jun 2022
  restoring atom style atomic from restart
  orthogonal box = (2130.6313 2130.6313 2130.6313) to (2869.3687 2869.3687 2869.3687)
  restoring pair style table from restart
  996 atoms
  read_restart CPU = 0.008 seconds

# Settings

pair_style table spline 9941

pair_coeff 1 1 ./pgnpmf/N20.txt DE_GNP 75.6
pair_coeff 2 2 ./pgnpmf/N100.txt DE_GNP 115.92
pair_coeff 1 2 ./pgnpmf/mixed_potential.txt DE_GNP 95.66

#Neigh_list Calc Frequency

neigh_modify delay 0 every 1 check yes

# Saving Frequency (50 frames)

variable ts_save equal 5000

# Dump
#dump_modify 1 first no sort id
dump 2 all cfg 50000 ./pgnpmf/37/equilibration/trajectory/dumpgen.tens_*.cfg mass type xs ys zs fx fy fz
dump_modify 2 element N20 N100

# thermo_style
thermo_style custom step temp press pe density ke etotal lx ly lz xlo xhi ylo yhi zlo zhi vol dt time cpu tpcpu spcpu cpuremain

# run info
timestep 0.1
thermo 200

# fix

fix 1 all momentum 1000 linear 1 1 1 angular
variable T equal 300
fix 2 all nvt temp 300 370000 100.0

run 100000
Generated 0 of 1 mixed pair_coeff terms from geometric mixing rule
Unused restart file global fix info:
  fix style: npt, fix ID: 5
  update every 1 steps, delay 0 steps, check yes
Step          Temp          Press          PotEng        Density         KinEng         TotEng           Lx             Ly             Lz            Xlo            Xhi            Ylo            Yhi            Zlo            Zhi           Volume           Dt            Time           CPU           T/CPU          S/CPU         CPULeft
39205000   305.95847     -0.62692813    -41423325       1.4840429      907.44407     -41422418       738.73739      738.73739      738.73739      2130.6313      2869.3687      2130.6313      2869.3687      2130.6313      2869.3687      4.0315333e+08  0.1            15125000       0              0              0              0
Averages over the last 251 of 501 rows, steps 39255000 to 39305000:
Temp Press PotEng Density KinEng TotEng Lx Ly Lz Xlo Xhi Ylo Yhi Zlo Zhi Volume Dt
277117 610.293 -4.13934e+07 1.48404 821903 -4.05715e+07 738.737 738.737 738.737 2130.63 2869.37 2130.63 2869.37 2130.63 2869.37 4.03153e+08 0.1
Loop time of 7.21189 on 4 procs for 100000 steps with 996 atoms

unfix 2

fix 3 all nvt temp 370000 370000 $(100.0*dt) #iso 1.0 1.0 $(1000.0*dt)
fix 3 all nvt temp 370000 370000 10

run 200000
Generated 0 of 1 mixed pair_coeff terms from geometric mixing rule
Step          Temp          Press          PotEng        Density         KinEng         TotEng           Lx             Ly             Lz            Xlo            Xhi            Ylo            Yhi            Zlo            Zhi           Volume           Dt            Time           CPU           T/CPU          S/CPU         CPULeft
39305000   378590.46      1077.0253     -41335021       1.4840429      1122863.7     -40212157       738.73739      738.73739      738.73739      2130.6313      2869.3687      2130.6313      2869.3687      2130.6313      2869.3687      4.0315333e+08  0.1            15135000       0              0              0              0
Averages over the last 501 of 1001 rows, steps 39405000 to 39505000:
Temp Press PotEng Density KinEng TotEng Lx Ly Lz Xlo Xhi Ylo Yhi Zlo Zhi Volume Dt
370122 1244.42 -4.11548e+07 1.48404 1.09775e+06 -4.00571e+07 738.737 738.737 738.737 2130.63 2869.37 2130.63 2869.37 2130.63 2869.37 4.03153e+08 0.1
Loop time of 14.5079 on 4 procs for 200000 steps with 996 atoms

unfix 3

fix 4 all nvt temp 370000 300 100.0

run 100000
Generated 0 of 1 mixed pair_coeff terms from geometric mixing rule
Step          Temp          Press          PotEng        Density         KinEng         TotEng           Lx             Ly             Lz            Xlo            Xhi            Ylo            Yhi            Zlo            Zhi           Volume           Dt            Time           CPU           T/CPU          S/CPU         CPULeft
39505000   365941.96      1024.1276     -40857602       1.4840429      1085349.5     -39772253       738.73739      738.73739      738.73739      2130.6313      2869.3687      2130.6313      2869.3687      2130.6313      2869.3687      4.0315333e+08  0.1            15155000       0              0              0              0
Averages over the last 251 of 501 rows, steps 39555000 to 39605000:
Temp Press PotEng Density KinEng TotEng Lx Ly Lz Xlo Xhi Ylo Yhi Zlo Zhi Volume Dt
95974.3 11.5434 -4.11946e+07 1.48404 284651 -4.091e+07 738.737 738.737 738.737 2130.63 2869.37 2130.63 2869.37 2130.63 2869.37 4.03153e+08 0.1
Loop time of 7.02257 on 4 procs for 100000 steps with 996 atoms

unfix 4

fix 5 all npt temp 300 300 $(100.0*dt) iso 1.0 1.0 $(1000.0*dt)
fix 5 all npt temp 300 300 10 iso 1.0 1.0 $(1000.0*dt)
fix 5 all npt temp 300 300 10 iso 1.0 1.0 100

run 300000
Generated 0 of 1 mixed pair_coeff terms from geometric mixing rule
Step          Temp          Press          PotEng        Density         KinEng         TotEng           Lx             Ly             Lz            Xlo            Xhi            Ylo            Yhi            Zlo            Zhi           Volume           Dt            Time           CPU           T/CPU          S/CPU         CPULeft
39605000   5055.9859     -319.5327      -41376950       1.4840429      14995.579     -41361954       738.73739      738.73739      738.73739      2130.6313      2869.3687      2130.6313      2869.3687      2130.6313      2869.3687      4.0315333e+08  0.1            15165000       0              0              0              0
Averages over the last 751 of 1501 rows, steps 39755000 to 39905000:
Temp Press PotEng Density KinEng TotEng Lx Ly Lz Xlo Xhi Ylo Yhi Zlo Zhi Volume Dt
307.337 1.44245 -4.1723e+07 1.50549 911.532 -4.17221e+07 735.213 735.213 735.213 2132.39 2867.61 2132.39 2867.61 2132.39 2867.61 3.97411e+08 0.1
Loop time of 25.8845 on 4 procs for 300000 steps with 996 atoms

# run_style
run_style verlet

# write restart
write_restart ./pgnpmf/37/equpmf57.res
System init for write_restart ...
Generated 0 of 1 mixed pair_coeff terms from geometric mixing rule
