LAMMPS (23 Jun 2022 - Update 1)
# Read restart
read_restart ./pgnpmf/37/equpmf28.res
Reading restart file ...
  restart file = 23 Jun 2022, LAMMPS = 23 Jun 2022
  restoring atom style atomic from restart
  orthogonal box = (1986.6439 1986.6439 1986.6439) to (3013.3561 3013.3561 3013.3561)
  restoring pair style table from restart
  996 atoms
  read_restart CPU = 0.006 seconds

# Settings

pair_style table spline 9941

pair_coeff 1 1 ./pgnpmf/N20.txt DE_GNP 75.6
pair_coeff 2 2 ./pgnpmf/N100.txt DE_GNP 115.92
pair_coeff 1 2 ./pgnpmf/mixed_potential.txt DE_GNP 95.66

#Neigh_list Calc Frequency

neigh_modify delay 0 every 1 check yes

# Saving Frequency (50 frames)

variable ts_save equal 5000

# Dump
#dump_modify 1 first no sort id
dump 2 all cfg 50000 ./pgnpmf/37/equilibration/trajectory/dumpgen.tens_*.cfg mass type xs ys zs fx fy fz
dump_modify 2 element N20 N100

# thermo_style
thermo_style custom step temp press pe density ke etotal lx ly lz xlo xhi ylo yhi zlo zhi vol dt time cpu tpcpu spcpu cpuremain

# run info
timestep 0.5
thermo 200

# fix

fix 1 all momentum 1000 linear 1 1 1 angular
variable T equal 300
fix 2 all nvt temp 300 370000 100.0

run 100000
Generated 0 of 1 mixed pair_coeff terms from geometric mixing rule
Unused restart file global fix info:
  fix style: npt, fix ID: 5
  update every 1 steps, delay 0 steps, check yes
Step          Temp          Press          PotEng        Density         KinEng         TotEng           Lx             Ly             Lz            Xlo            Xhi            Ylo            Yhi            Zlo            Zhi           Volume           Dt            Time           CPU           T/CPU          S/CPU         CPULeft
19605000   307.35571     -0.3325626     -35560016       0.5528031      911.58814     -35559104       1026.7122      1026.7122      1026.7122      1986.6439      3013.3561      1986.6439      3013.3561      1986.6439      3013.3561      1.0822964e+09  0.5            9805000        0              0              0              0
Averages over the last 251 of 501 rows, steps 19655000 to 19705000:
Temp Press PotEng Density KinEng TotEng Lx Ly Lz Xlo Xhi Ylo Yhi Zlo Zhi Volume Dt
277148 56.7297 -3.51509e+07 0.552803 821996 -3.43289e+07 1026.71 1026.71 1026.71 1986.64 3013.36 1986.64 3013.36 1986.64 3013.36 1.0823e+09 0.5
Loop time of 9.42394 on 4 procs for 100000 steps with 996 atoms

unfix 2

fix 3 all nvt temp 370000 370000 $(100.0*dt) #iso 1.0 1.0 $(1000.0*dt)
fix 3 all nvt temp 370000 370000 50

run 200000
Generated 0 of 1 mixed pair_coeff terms from geometric mixing rule
Step          Temp          Press          PotEng        Density         KinEng         TotEng           Lx             Ly             Lz            Xlo            Xhi            Ylo            Yhi            Zlo            Zhi           Volume           Dt            Time           CPU           T/CPU          S/CPU         CPULeft
19705000   369050.46     -17.176689     -34586009       0.5528031      1094569       -33491440       1026.7122      1026.7122      1026.7122      1986.6439      3013.3561      1986.6439      3013.3561      1986.6439      3013.3561      1.0822964e+09  0.5            9855000        0              0              0              0
Averages over the last 501 of 1001 rows, steps 19805000 to 19905000:
Temp Press PotEng Density KinEng TotEng Lx Ly Lz Xlo Xhi Ylo Yhi Zlo Zhi Volume Dt
369953 0.526735 -3.33982e+07 0.552803 1.09725e+06 -3.2301e+07 1026.71 1026.71 1026.71 1986.64 3013.36 1986.64 3013.36 1986.64 3013.36 1.0823e+09 0.5
Loop time of 18.6731 on 4 procs for 200000 steps with 996 atoms

unfix 3

fix 4 all nvt temp 370000 300 100.0

run 100000
Generated 0 of 1 mixed pair_coeff terms from geometric mixing rule
Step          Temp          Press          PotEng        Density         KinEng         TotEng           Lx             Ly             Lz            Xlo            Xhi            Ylo            Yhi            Zlo            Zhi           Volume           Dt            Time           CPU           T/CPU          S/CPU         CPULeft
19905000   384075.36      16.875857     -33301607       0.5528031      1139131.4     -32162475       1026.7122      1026.7122      1026.7122      1986.6439      3013.3561      1986.6439      3013.3561      1986.6439      3013.3561      1.0822964e+09  0.5            9955000        0              0              0              0
Averages over the last 251 of 501 rows, steps 19955000 to 20005000:
Temp Press PotEng Density KinEng TotEng Lx Ly Lz Xlo Xhi Ylo Yhi Zlo Zhi Volume Dt
93198.4 -93.1606 -3.45816e+07 0.552803 276418 -3.43052e+07 1026.71 1026.71 1026.71 1986.64 3013.36 1986.64 3013.36 1986.64 3013.36 1.0823e+09 0.5
Loop time of 9.35343 on 4 procs for 100000 steps with 996 atoms

unfix 4

fix 5 all npt temp 300 300 $(100.0*dt) iso 1.0 1.0 $(1000.0*dt)
fix 5 all npt temp 300 300 50 iso 1.0 1.0 $(1000.0*dt)
fix 5 all npt temp 300 300 50 iso 1.0 1.0 500

run 300000
Generated 0 of 1 mixed pair_coeff terms from geometric mixing rule
Step          Temp          Press          PotEng        Density         KinEng         TotEng           Lx             Ly             Lz            Xlo            Xhi            Ylo            Yhi            Zlo            Zhi           Volume           Dt            Time           CPU           T/CPU          S/CPU         CPULeft
20005000   1373.5069     -111.63487     -35141376       0.5528031      4073.6922     -35137302       1026.7122      1026.7122      1026.7122      1986.6439      3013.3561      1986.6439      3013.3561      1986.6439      3013.3561      1.0822964e+09  0.5            10005000       0              0              0              0
Averages over the last 751 of 1501 rows, steps 20155000 to 20305000:
Temp Press PotEng Density KinEng TotEng Lx Ly Lz Xlo Xhi Ylo Yhi Zlo Zhi Volume Dt
308.168 1.06213 -3.56198e+07 0.568442 913.997 -3.56188e+07 1017.21 1017.21 1017.21 1991.39 3008.61 1991.39 3008.61 1991.39 3008.61 1.05253e+09 0.5
Loop time of 34.0465 on 4 procs for 300000 steps with 996 atoms

# run_style
run_style verlet

# write restart
write_restart ./pgnpmf/37/equpmf29.res
System init for write_restart ...
Generated 0 of 1 mixed pair_coeff terms from geometric mixing rule
