LAMMPS (23 Jun 2022 - Update 1)
# Read restart
read_restart ./pgnpmf/37/equpmf98.res
Reading restart file ...
  restart file = 23 Jun 2022, LAMMPS = 23 Jun 2022
  restoring atom style atomic from restart
  orthogonal box = (2149.1019 2149.1019 2149.1019) to (2850.8981 2850.8981 2850.8981)
  restoring pair style table from restart
  996 atoms
  read_restart CPU = 0.007 seconds

# Settings

pair_style table spline 9941

pair_coeff 1 1 ./pgnpmf/N20.txt DE_GNP 75.6
pair_coeff 2 2 ./pgnpmf/N100.txt DE_GNP 115.92
pair_coeff 1 2 ./pgnpmf/mixed_potential.txt DE_GNP 95.66

#Neigh_list Calc Frequency

neigh_modify delay 0 every 1 check yes

# Saving Frequency (50 frames)

variable ts_save equal 5000

# Dump
#dump_modify 1 first no sort id
dump 2 all cfg 50000 ./pgnpmf/37/equilibration/trajectory/dumpgen.tens_*.cfg mass type xs ys zs fx fy fz
dump_modify 2 element N20 N100

# thermo_style
thermo_style custom step temp press pe density ke etotal lx ly lz xlo xhi ylo yhi zlo zhi vol dt time cpu tpcpu spcpu cpuremain

# run info
timestep 0.1
thermo 200

# fix

fix 1 all momentum 1000 linear 1 1 1 angular
variable T equal 300
fix 2 all nvt temp 300 370000 100.0

run 100000
Generated 0 of 1 mixed pair_coeff terms from geometric mixing rule
Unused restart file global fix info:
  fix style: npt, fix ID: 5
  update every 1 steps, delay 0 steps, check yes
Step          Temp          Press          PotEng        Density         KinEng         TotEng           Lx             Ly             Lz            Xlo            Xhi            Ylo            Yhi            Zlo            Zhi           Volume           Dt            Time           CPU           T/CPU          S/CPU         CPULeft
68605000   305.08804     -0.34287233    -44161747       1.7309461      904.86244     -44160842       701.79626      701.79626      701.79626      2149.1019      2850.8981      2149.1019      2850.8981      2149.1019      2850.8981      3.4564729e+08  0.1            18065000       0              0              0              0
Averages over the last 251 of 501 rows, steps 68655000 to 68705000:
Temp Press PotEng Density KinEng TotEng Lx Ly Lz Xlo Xhi Ylo Yhi Zlo Zhi Volume Dt
277118 528.203 -4.38603e+07 1.73095 821907 -4.30384e+07 701.796 701.796 701.796 2149.1 2850.9 2149.1 2850.9 2149.1 2850.9 3.45647e+08 0.1
Loop time of 7.77818 on 4 procs for 100000 steps with 996 atoms

unfix 2

fix 3 all nvt temp 370000 370000 $(100.0*dt) #iso 1.0 1.0 $(1000.0*dt)
fix 3 all nvt temp 370000 370000 10

run 200000
Generated 0 of 1 mixed pair_coeff terms from geometric mixing rule
Step          Temp          Press          PotEng        Density         KinEng         TotEng           Lx             Ly             Lz            Xlo            Xhi            Ylo            Yhi            Zlo            Zhi           Volume           Dt            Time           CPU           T/CPU          S/CPU         CPULeft
68705000   368004.61      1025.2808     -43615367       1.7309461      1091467.1     -42523900       701.79626      701.79626      701.79626      2149.1019      2850.8981      2149.1019      2850.8981      2149.1019      2850.8981      3.4564729e+08  0.1            18075000       0              0              0              0
Averages over the last 501 of 1001 rows, steps 68805000 to 68905000:
Temp Press PotEng Density KinEng TotEng Lx Ly Lz Xlo Xhi Ylo Yhi Zlo Zhi Volume Dt
370118 1708.2 -4.31958e+07 1.73095 1.09773e+06 -4.20981e+07 701.796 701.796 701.796 2149.1 2850.9 2149.1 2850.9 2149.1 2850.9 3.45647e+08 0.1
Loop time of 15.2107 on 4 procs for 200000 steps with 996 atoms

unfix 3

fix 4 all nvt temp 370000 300 100.0

run 100000
Generated 0 of 1 mixed pair_coeff terms from geometric mixing rule
Step          Temp          Press          PotEng        Density         KinEng         TotEng           Lx             Ly             Lz            Xlo            Xhi            Ylo            Yhi            Zlo            Zhi           Volume           Dt            Time           CPU           T/CPU          S/CPU         CPULeft
68905000   376818.98      1842.5253     -43118189       1.7309461      1117609.7     -42000579       701.79626      701.79626      701.79626      2149.1019      2850.8981      2149.1019      2850.8981      2149.1019      2850.8981      3.4564729e+08  0.1            18095000       0              0              0              0
Averages over the last 251 of 501 rows, steps 68955000 to 69005000:
Temp Press PotEng Density KinEng TotEng Lx Ly Lz Xlo Xhi Ylo Yhi Zlo Zhi Volume Dt
96680.1 839.269 -4.35287e+07 1.73095 286744 -4.3242e+07 701.796 701.796 701.796 2149.1 2850.9 2149.1 2850.9 2149.1 2850.9 3.45647e+08 0.1
Loop time of 7.3174 on 4 procs for 100000 steps with 996 atoms

unfix 4

fix 5 all npt temp 300 300 $(100.0*dt) iso 1.0 1.0 $(1000.0*dt)
fix 5 all npt temp 300 300 10 iso 1.0 1.0 $(1000.0*dt)
fix 5 all npt temp 300 300 10 iso 1.0 1.0 100

run 300000
Generated 0 of 1 mixed pair_coeff terms from geometric mixing rule
Step          Temp          Press          PotEng        Density         KinEng         TotEng           Lx             Ly             Lz            Xlo            Xhi            Ylo            Yhi            Zlo            Zhi           Volume           Dt            Time           CPU           T/CPU          S/CPU         CPULeft
69005000   5200.2201      404.92722     -43658644       1.7309461      15423.364     -43643220       701.79626      701.79626      701.79626      2149.1019      2850.8981      2149.1019      2850.8981      2149.1019      2850.8981      3.4564729e+08  0.1            18105000       0              0              0              0
Averages over the last 751 of 1501 rows, steps 69155000 to 69305000:
Temp Press PotEng Density KinEng TotEng Lx Ly Lz Xlo Xhi Ylo Yhi Zlo Zhi Volume Dt
306.387 1.11589 -4.37958e+07 1.72683 908.715 -4.37949e+07 702.353 702.353 702.353 2148.82 2851.18 2148.82 2851.18 2148.82 2851.18 3.46471e+08 0.1
Loop time of 25.9327 on 4 procs for 300000 steps with 996 atoms

# run_style
run_style verlet

# write restart
write_restart ./pgnpmf/37/equpmf99.res
System init for write_restart ...
Generated 0 of 1 mixed pair_coeff terms from geometric mixing rule
