LAMMPS (23 Jun 2022 - Update 1)
# Read restart
read_restart ./pgnpmf/37/equpmf95.res
Reading restart file ...
  restart file = 23 Jun 2022, LAMMPS = 23 Jun 2022
  restoring atom style atomic from restart
  orthogonal box = (2148.7934 2148.7934 2148.7934) to (2851.2066 2851.2066 2851.2066)
  restoring pair style table from restart
  996 atoms
  read_restart CPU = 0.008 seconds

# Settings

pair_style table spline 9941

pair_coeff 1 1 ./pgnpmf/N20.txt DE_GNP 75.6
pair_coeff 2 2 ./pgnpmf/N100.txt DE_GNP 115.92
pair_coeff 1 2 ./pgnpmf/mixed_potential.txt DE_GNP 95.66

#Neigh_list Calc Frequency

neigh_modify delay 0 every 1 check yes

# Saving Frequency (50 frames)

variable ts_save equal 5000

# Dump
#dump_modify 1 first no sort id
dump 2 all cfg 50000 ./pgnpmf/37/equilibration/trajectory/dumpgen.tens_*.cfg mass type xs ys zs fx fy fz
dump_modify 2 element N20 N100

# thermo_style
thermo_style custom step temp press pe density ke etotal lx ly lz xlo xhi ylo yhi zlo zhi vol dt time cpu tpcpu spcpu cpuremain

# run info
timestep 0.1
thermo 200

# fix

fix 1 all momentum 1000 linear 1 1 1 angular
variable T equal 300
fix 2 all nvt temp 300 370000 100.0

run 100000
Generated 0 of 1 mixed pair_coeff terms from geometric mixing rule
Unused restart file global fix info:
  fix style: npt, fix ID: 5
  update every 1 steps, delay 0 steps, check yes
Step          Temp          Press          PotEng        Density         KinEng         TotEng           Lx             Ly             Lz            Xlo            Xhi            Ylo            Yhi            Zlo            Zhi           Volume           Dt            Time           CPU           T/CPU          S/CPU         CPULeft
66505000   305.45029     -3.2754082     -43987586       1.7263892      905.93684     -43986680       702.41319      702.41319      702.41319      2148.7934      2851.2066      2148.7934      2851.2066      2148.7934      2851.2066      3.4655964e+08  0.1            17855000       0              0              0              0
Averages over the last 251 of 501 rows, steps 66555000 to 66605000:
Temp Press PotEng Density KinEng TotEng Lx Ly Lz Xlo Xhi Ylo Yhi Zlo Zhi Volume Dt
277586 515.686 -4.38073e+07 1.72639 823294 -4.2984e+07 702.413 702.413 702.413 2148.79 2851.21 2148.79 2851.21 2148.79 2851.21 3.4656e+08 0.1
Loop time of 8.03343 on 4 procs for 100000 steps with 996 atoms

unfix 2

fix 3 all nvt temp 370000 370000 $(100.0*dt) #iso 1.0 1.0 $(1000.0*dt)
fix 3 all nvt temp 370000 370000 10

run 200000
Generated 0 of 1 mixed pair_coeff terms from geometric mixing rule
Step          Temp          Press          PotEng        Density         KinEng         TotEng           Lx             Ly             Lz            Xlo            Xhi            Ylo            Yhi            Zlo            Zhi           Volume           Dt            Time           CPU           T/CPU          S/CPU         CPULeft
66605000   380688.92      962.23673     -43543029       1.7263892      1129087.5     -42413942       702.41319      702.41319      702.41319      2148.7934      2851.2066      2148.7934      2851.2066      2148.7934      2851.2066      3.4655964e+08  0.1            17865000       0              0              0              0
Averages over the last 501 of 1001 rows, steps 66705000 to 66805000:
Temp Press PotEng Density KinEng TotEng Lx Ly Lz Xlo Xhi Ylo Yhi Zlo Zhi Volume Dt
369957 1460.37 -4.31496e+07 1.72639 1.09726e+06 -4.20523e+07 702.413 702.413 702.413 2148.79 2851.21 2148.79 2851.21 2148.79 2851.21 3.4656e+08 0.1
Loop time of 16.0032 on 4 procs for 200000 steps with 996 atoms

unfix 3

fix 4 all nvt temp 370000 300 100.0

run 100000
Generated 0 of 1 mixed pair_coeff terms from geometric mixing rule
Step          Temp          Press          PotEng        Density         KinEng         TotEng           Lx             Ly             Lz            Xlo            Xhi            Ylo            Yhi            Zlo            Zhi           Volume           Dt            Time           CPU           T/CPU          S/CPU         CPULeft
66805000   352542.35      1516.097      -43217364       1.7263892      1045607.5     -42171757       702.41319      702.41319      702.41319      2148.7934      2851.2066      2148.7934      2851.2066      2148.7934      2851.2066      3.4655964e+08  0.1            17885000       0              0              0              0
Averages over the last 251 of 501 rows, steps 66855000 to 66905000:
Temp Press PotEng Density KinEng TotEng Lx Ly Lz Xlo Xhi Ylo Yhi Zlo Zhi Volume Dt
96797.7 667.944 -4.35432e+07 1.72639 287093 -4.32561e+07 702.413 702.413 702.413 2148.79 2851.21 2148.79 2851.21 2148.79 2851.21 3.4656e+08 0.1
Loop time of 7.89855 on 4 procs for 100000 steps with 996 atoms

unfix 4

fix 5 all npt temp 300 300 $(100.0*dt) iso 1.0 1.0 $(1000.0*dt)
fix 5 all npt temp 300 300 10 iso 1.0 1.0 $(1000.0*dt)
fix 5 all npt temp 300 300 10 iso 1.0 1.0 100

run 300000
Generated 0 of 1 mixed pair_coeff terms from geometric mixing rule
Step          Temp          Press          PotEng        Density         KinEng         TotEng           Lx             Ly             Lz            Xlo            Xhi            Ylo            Yhi            Zlo            Zhi           Volume           Dt            Time           CPU           T/CPU          S/CPU         CPULeft
66905000   5164.5333      223.65044     -43719189       1.7263892      15317.52      -43703872       702.41319      702.41319      702.41319      2148.7934      2851.2066      2148.7934      2851.2066      2148.7934      2851.2066      3.4655964e+08  0.1            17895000       0              0              0              0
Averages over the last 751 of 1501 rows, steps 67055000 to 67205000:
Temp Press PotEng Density KinEng TotEng Lx Ly Lz Xlo Xhi Ylo Yhi Zlo Zhi Volume Dt
306.733 0.957744 -4.38497e+07 1.72859 909.74 -4.38488e+07 702.115 702.115 702.115 2148.94 2851.06 2148.94 2851.06 2148.94 2851.06 3.46118e+08 0.1
Loop time of 28.0034 on 4 procs for 300000 steps with 996 atoms

# run_style
run_style verlet

# write restart
write_restart ./pgnpmf/37/equpmf96.res
System init for write_restart ...
Generated 0 of 1 mixed pair_coeff terms from geometric mixing rule
