LAMMPS (23 Jun 2022 - Update 1)
# Read restart
read_restart ./pgnpmf/37/equpmf52.res
Reading restart file ...
  restart file = 23 Jun 2022, LAMMPS = 23 Jun 2022
  restoring atom style atomic from restart
  orthogonal box = (2120.0189 2120.0189 2120.0189) to (2879.9811 2879.9811 2879.9811)
  restoring pair style table from restart
  996 atoms
  read_restart CPU = 0.008 seconds

# Settings

pair_style table spline 9941

pair_coeff 1 1 ./pgnpmf/N20.txt DE_GNP 75.6
pair_coeff 2 2 ./pgnpmf/N100.txt DE_GNP 115.92
pair_coeff 1 2 ./pgnpmf/mixed_potential.txt DE_GNP 95.66

#Neigh_list Calc Frequency

neigh_modify delay 0 every 1 check yes

# Saving Frequency (50 frames)

variable ts_save equal 5000

# Dump
#dump_modify 1 first no sort id
dump 2 all cfg 50000 ./pgnpmf/37/equilibration/trajectory/dumpgen.tens_*.cfg mass type xs ys zs fx fy fz
dump_modify 2 element N20 N100

# thermo_style
thermo_style custom step temp press pe density ke etotal lx ly lz xlo xhi ylo yhi zlo zhi vol dt time cpu tpcpu spcpu cpuremain

# run info
timestep 0.1
thermo 200

# fix

fix 1 all momentum 1000 linear 1 1 1 angular
variable T equal 300
fix 2 all nvt temp 300 370000 100.0

run 100000
Generated 0 of 1 mixed pair_coeff terms from geometric mixing rule
Unused restart file global fix info:
  fix style: npt, fix ID: 5
  update every 1 steps, delay 0 steps, check yes
Step          Temp          Press          PotEng        Density         KinEng         TotEng           Lx             Ly             Lz            Xlo            Xhi            Ylo            Yhi            Zlo            Zhi           Volume           Dt            Time           CPU           T/CPU          S/CPU         CPULeft
36405000   306.44101      0.17884461    -40730180       1.3631413      908.87524     -40729271       759.96211      759.96211      759.96211      2120.0189      2879.9811      2120.0189      2879.9811      2120.0189      2879.9811      4.3891034e+08  0.1            14845000       0              0              0              0
Averages over the last 251 of 501 rows, steps 36455000 to 36505000:
Temp Press PotEng Density KinEng TotEng Lx Ly Lz Xlo Xhi Ylo Yhi Zlo Zhi Volume Dt
277133 575.453 -4.07524e+07 1.36314 821950 -3.99304e+07 759.962 759.962 759.962 2120.02 2879.98 2120.02 2879.98 2120.02 2879.98 4.3891e+08 0.1
Loop time of 7.26442 on 4 procs for 100000 steps with 996 atoms

unfix 2

fix 3 all nvt temp 370000 370000 $(100.0*dt) #iso 1.0 1.0 $(1000.0*dt)
fix 3 all nvt temp 370000 370000 10

run 200000
Generated 0 of 1 mixed pair_coeff terms from geometric mixing rule
Step          Temp          Press          PotEng        Density         KinEng         TotEng           Lx             Ly             Lz            Xlo            Xhi            Ylo            Yhi            Zlo            Zhi           Volume           Dt            Time           CPU           T/CPU          S/CPU         CPULeft
36505000   379564.18      989.2133      -40707141       1.3631413      1125751.7     -39581389       759.96211      759.96211      759.96211      2120.0189      2879.9811      2120.0189      2879.9811      2120.0189      2879.9811      4.3891034e+08  0.1            14855000       0              0              0              0
Averages over the last 501 of 1001 rows, steps 36605000 to 36705000:
Temp Press PotEng Density KinEng TotEng Lx Ly Lz Xlo Xhi Ylo Yhi Zlo Zhi Volume Dt
369938 920.075 -4.01967e+07 1.36314 1.0972e+06 -3.90995e+07 759.962 759.962 759.962 2120.02 2879.98 2120.02 2879.98 2120.02 2879.98 4.3891e+08 0.1
Loop time of 14.5098 on 4 procs for 200000 steps with 996 atoms

unfix 3

fix 4 all nvt temp 370000 300 100.0

run 100000
Generated 0 of 1 mixed pair_coeff terms from geometric mixing rule
Step          Temp          Press          PotEng        Density         KinEng         TotEng           Lx             Ly             Lz            Xlo            Xhi            Ylo            Yhi            Zlo            Zhi           Volume           Dt            Time           CPU           T/CPU          S/CPU         CPULeft
36705000   382109.84      629.62859     -40023941       1.3631413      1133301.9     -38890639       759.96211      759.96211      759.96211      2120.0189      2879.9811      2120.0189      2879.9811      2120.0189      2879.9811      4.3891034e+08  0.1            14875000       0              0              0              0
Averages over the last 251 of 501 rows, steps 36755000 to 36805000:
Temp Press PotEng Density KinEng TotEng Lx Ly Lz Xlo Xhi Ylo Yhi Zlo Zhi Volume Dt
95590.9 -186.435 -4.00572e+07 1.36314 283514 -3.97737e+07 759.962 759.962 759.962 2120.02 2879.98 2120.02 2879.98 2120.02 2879.98 4.3891e+08 0.1
Loop time of 7.24741 on 4 procs for 100000 steps with 996 atoms

unfix 4

fix 5 all npt temp 300 300 $(100.0*dt) iso 1.0 1.0 $(1000.0*dt)
fix 5 all npt temp 300 300 10 iso 1.0 1.0 $(1000.0*dt)
fix 5 all npt temp 300 300 10 iso 1.0 1.0 100

run 300000
Generated 0 of 1 mixed pair_coeff terms from geometric mixing rule
Step          Temp          Press          PotEng        Density         KinEng         TotEng           Lx             Ly             Lz            Xlo            Xhi            Ylo            Yhi            Zlo            Zhi           Volume           Dt            Time           CPU           T/CPU          S/CPU         CPULeft
36805000   5070.6587     -463.71295     -40190903       1.3631413      15039.097     -40175864       759.96211      759.96211      759.96211      2120.0189      2879.9811      2120.0189      2879.9811      2120.0189      2879.9811      4.3891034e+08  0.1            14885000       0              0              0              0
Averages over the last 751 of 1501 rows, steps 36955000 to 37105000:
Temp Press PotEng Density KinEng TotEng Lx Ly Lz Xlo Xhi Ylo Yhi Zlo Zhi Volume Dt
307.845 1.0456 -4.06746e+07 1.39152 913.039 -4.06737e+07 754.76 754.76 754.76 2122.62 2877.38 2122.62 2877.38 2122.62 2877.38 4.29958e+08 0.1
Loop time of 26.1925 on 4 procs for 300000 steps with 996 atoms

# run_style
run_style verlet

# write restart
write_restart ./pgnpmf/37/equpmf53.res
System init for write_restart ...
Generated 0 of 1 mixed pair_coeff terms from geometric mixing rule
