LAMMPS (23 Jun 2022 - Update 1)
# Read restart
read_restart ./pgnpmf/37/equpmf13.res
Reading restart file ...
  restart file = 23 Jun 2022, LAMMPS = 23 Jun 2022
  restoring atom style atomic from restart
  orthogonal box = (1867.4873 1867.4873 1867.4873) to (3132.5127 3132.5127 3132.5127)
  restoring pair style table from restart
  996 atoms
  read_restart CPU = 0.005 seconds

# Settings

pair_style table spline 9941

pair_coeff 1 1 ./pgnpmf/N20.txt DE_GNP 75.6
pair_coeff 2 2 ./pgnpmf/N100.txt DE_GNP 115.92
pair_coeff 1 2 ./pgnpmf/mixed_potential.txt DE_GNP 95.66

#Neigh_list Calc Frequency

neigh_modify delay 0 every 1 check yes

# Saving Frequency (50 frames)

variable ts_save equal 5000

# Dump
#dump_modify 1 first no sort id
dump 2 all cfg 50000 ./pgnpmf/37/equilibration/trajectory/dumpgen.tens_*.cfg mass type xs ys zs fx fy fz
dump_modify 2 element N20 N100

# thermo_style
thermo_style custom step temp press pe density ke etotal lx ly lz xlo xhi ylo yhi zlo zhi vol dt time cpu tpcpu spcpu cpuremain

# run info
timestep 0.5
thermo 200

# fix

fix 1 all momentum 1000 linear 1 1 1 angular
variable T equal 300
fix 2 all nvt temp 300 370000 100.0

run 100000
Generated 0 of 1 mixed pair_coeff terms from geometric mixing rule
Unused restart file global fix info:
  fix style: npt, fix ID: 5
  update every 1 steps, delay 0 steps, check yes
Step          Temp          Press          PotEng        Density         KinEng         TotEng           Lx             Ly             Lz            Xlo            Xhi            Ylo            Yhi            Zlo            Zhi           Volume           Dt            Time           CPU           T/CPU          S/CPU         CPULeft
9105000   312.46739      0.18292398    -19502026       0.29554187     926.74891     -19501099       1265.0253      1265.0253      1265.0253      1867.4873      3132.5127      1867.4873      3132.5127      1867.4873      3132.5127      2.0244063e+09  0.5            4555000        0              0              0              0
Averages over the last 251 of 501 rows, steps 9155000 to 9205000:
Temp Press PotEng Density KinEng TotEng Lx Ly Lz Xlo Xhi Ylo Yhi Zlo Zhi Volume Dt
277602 12.4858 -1.98123e+07 0.295542 823342 -1.89889e+07 1265.03 1265.03 1265.03 1867.49 3132.51 1867.49 3132.51 1867.49 3132.51 2.02441e+09 0.5
Loop time of 4.9118 on 4 procs for 100000 steps with 996 atoms

unfix 2

fix 3 all nvt temp 370000 370000 $(100.0*dt) #iso 1.0 1.0 $(1000.0*dt)
fix 3 all nvt temp 370000 370000 50

run 200000
Generated 0 of 1 mixed pair_coeff terms from geometric mixing rule
Step          Temp          Press          PotEng        Density         KinEng         TotEng           Lx             Ly             Lz            Xlo            Xhi            Ylo            Yhi            Zlo            Zhi           Volume           Dt            Time           CPU           T/CPU          S/CPU         CPULeft
9205000   370636.72      16.636485     -19603822       0.29554187     1099273.7     -18504549       1265.0253      1265.0253      1265.0253      1867.4873      3132.5127      1867.4873      3132.5127      1867.4873      3132.5127      2.0244063e+09  0.5            4605000        0              0              0              0
Averages over the last 501 of 1001 rows, steps 9305000 to 9405000:
Temp Press PotEng Density KinEng TotEng Lx Ly Lz Xlo Xhi Ylo Yhi Zlo Zhi Volume Dt
369827 4.16607 -1.92872e+07 0.295542 1.09687e+06 -1.81903e+07 1265.03 1265.03 1265.03 1867.49 3132.51 1867.49 3132.51 1867.49 3132.51 2.02441e+09 0.5
Loop time of 10.0832 on 4 procs for 200000 steps with 996 atoms

unfix 3

fix 4 all nvt temp 370000 300 100.0

run 100000
Generated 0 of 1 mixed pair_coeff terms from geometric mixing rule
Step          Temp          Press          PotEng        Density         KinEng         TotEng           Lx             Ly             Lz            Xlo            Xhi            Ylo            Yhi            Zlo            Zhi           Volume           Dt            Time           CPU           T/CPU          S/CPU         CPULeft
9405000   361351.92      2.927809      -19426550       0.29554187     1071735.8     -18354815       1265.0253      1265.0253      1265.0253      1867.4873      3132.5127      1867.4873      3132.5127      1867.4873      3132.5127      2.0244063e+09  0.5            4705000        0              0              0              0
Averages over the last 251 of 501 rows, steps 9455000 to 9505000:
Temp Press PotEng Density KinEng TotEng Lx Ly Lz Xlo Xhi Ylo Yhi Zlo Zhi Volume Dt
93326.8 -32.5185 -2.10018e+07 0.295542 276799 -2.0725e+07 1265.03 1265.03 1265.03 1867.49 3132.51 1867.49 3132.51 1867.49 3132.51 2.02441e+09 0.5
Loop time of 5.10652 on 4 procs for 100000 steps with 996 atoms

unfix 4

fix 5 all npt temp 300 300 $(100.0*dt) iso 1.0 1.0 $(1000.0*dt)
fix 5 all npt temp 300 300 50 iso 1.0 1.0 $(1000.0*dt)
fix 5 all npt temp 300 300 50 iso 1.0 1.0 500

run 300000
Generated 0 of 1 mixed pair_coeff terms from geometric mixing rule
Step          Temp          Press          PotEng        Density         KinEng         TotEng           Lx             Ly             Lz            Xlo            Xhi            Ylo            Yhi            Zlo            Zhi           Volume           Dt            Time           CPU           T/CPU          S/CPU         CPULeft
9505000   1360.3546     -40.029556     -21618282       0.29554187     4034.6838     -21614247       1265.0253      1265.0253      1265.0253      1867.4873      3132.5127      1867.4873      3132.5127      1867.4873      3132.5127      2.0244063e+09  0.5            4755000        0              0              0              0
Averages over the last 751 of 1501 rows, steps 9655000 to 9805000:
Temp Press PotEng Density KinEng TotEng Lx Ly Lz Xlo Xhi Ylo Yhi Zlo Zhi Volume Dt
312.547 0.969139 -2.2163e+07 0.315547 926.985 -2.2162e+07 1237.73 1237.73 1237.73 1881.14 3118.86 1881.14 3118.86 1881.14 3118.86 1.89621e+09 0.5
Loop time of 20.2686 on 4 procs for 300000 steps with 996 atoms

# run_style
run_style verlet

# write restart
write_restart ./pgnpmf/37/equpmf14.res
System init for write_restart ...
Generated 0 of 1 mixed pair_coeff terms from geometric mixing rule
