LAMMPS (23 Jun 2022 - Update 1)
# Read restart
read_restart ./pgnpmf/37/equpmf84.res
Reading restart file ...
  restart file = 23 Jun 2022, LAMMPS = 23 Jun 2022
  restoring atom style atomic from restart
  orthogonal box = (2148.4092 2148.4092 2148.4092) to (2851.5908 2851.5908 2851.5908)
  restoring pair style table from restart
  996 atoms
  read_restart CPU = 0.007 seconds

# Settings

pair_style table spline 9941

pair_coeff 1 1 ./pgnpmf/N20.txt DE_GNP 75.6
pair_coeff 2 2 ./pgnpmf/N100.txt DE_GNP 115.92
pair_coeff 1 2 ./pgnpmf/mixed_potential.txt DE_GNP 95.66

#Neigh_list Calc Frequency

neigh_modify delay 0 every 1 check yes

# Saving Frequency (50 frames)

variable ts_save equal 5000

# Dump
#dump_modify 1 first no sort id
dump 2 all cfg 50000 ./pgnpmf/37/equilibration/trajectory/dumpgen.tens_*.cfg mass type xs ys zs fx fy fz
dump_modify 2 element N20 N100

# thermo_style
thermo_style custom step temp press pe density ke etotal lx ly lz xlo xhi ylo yhi zlo zhi vol dt time cpu tpcpu spcpu cpuremain

# run info
timestep 0.1
thermo 200

# fix

fix 1 all momentum 1000 linear 1 1 1 angular
variable T equal 300
fix 2 all nvt temp 300 370000 100.0

run 100000
Generated 0 of 1 mixed pair_coeff terms from geometric mixing rule
Unused restart file global fix info:
  fix style: npt, fix ID: 5
  update every 1 steps, delay 0 steps, check yes
Step          Temp          Press          PotEng        Density         KinEng         TotEng           Lx             Ly             Lz            Xlo            Xhi            Ylo            Yhi            Zlo            Zhi           Volume           Dt            Time           CPU           T/CPU          S/CPU         CPULeft
58805000   305.00598      5.7977343     -43961224       1.7207362      904.61905     -43960319       703.18154      703.18154      703.18154      2148.4092      2851.5908      2148.4092      2851.5908      2148.4092      2851.5908      3.4769816e+08  0.1            17085000       0              0              0              0
Averages over the last 251 of 501 rows, steps 58855000 to 58905000:
Temp Press PotEng Density KinEng TotEng Lx Ly Lz Xlo Xhi Ylo Yhi Zlo Zhi Volume Dt
277334 514.972 -4.3558e+07 1.72074 822547 -4.27355e+07 703.182 703.182 703.182 2148.41 2851.59 2148.41 2851.59 2148.41 2851.59 3.47698e+08 0.1
Loop time of 7.70608 on 4 procs for 100000 steps with 996 atoms

unfix 2

fix 3 all nvt temp 370000 370000 $(100.0*dt) #iso 1.0 1.0 $(1000.0*dt)
fix 3 all nvt temp 370000 370000 10

run 200000
Generated 0 of 1 mixed pair_coeff terms from geometric mixing rule
Step          Temp          Press          PotEng        Density         KinEng         TotEng           Lx             Ly             Lz            Xlo            Xhi            Ylo            Yhi            Zlo            Zhi           Volume           Dt            Time           CPU           T/CPU          S/CPU         CPULeft
58905000   362314.79      984.59206     -43333145       1.7207362      1074591.6     -42258554       703.18154      703.18154      703.18154      2148.4092      2851.5908      2148.4092      2851.5908      2148.4092      2851.5908      3.4769816e+08  0.1            17095000       0              0              0              0
Averages over the last 501 of 1001 rows, steps 59005000 to 59105000:
Temp Press PotEng Density KinEng TotEng Lx Ly Lz Xlo Xhi Ylo Yhi Zlo Zhi Volume Dt
369782 1759.3 -4.30776e+07 1.72074 1.09674e+06 -4.19809e+07 703.182 703.182 703.182 2148.41 2851.59 2148.41 2851.59 2148.41 2851.59 3.47698e+08 0.1
Loop time of 15.3292 on 4 procs for 200000 steps with 996 atoms

unfix 3

fix 4 all nvt temp 370000 300 100.0

run 100000
Generated 0 of 1 mixed pair_coeff terms from geometric mixing rule
Step          Temp          Press          PotEng        Density         KinEng         TotEng           Lx             Ly             Lz            Xlo            Xhi            Ylo            Yhi            Zlo            Zhi           Volume           Dt            Time           CPU           T/CPU          S/CPU         CPULeft
59105000   380542.13      1888.0036     -42950323       1.7207362      1128652.2     -41821670       703.18154      703.18154      703.18154      2148.4092      2851.5908      2148.4092      2851.5908      2148.4092      2851.5908      3.4769816e+08  0.1            17115000       0              0              0              0
Averages over the last 251 of 501 rows, steps 59155000 to 59205000:
Temp Press PotEng Density KinEng TotEng Lx Ly Lz Xlo Xhi Ylo Yhi Zlo Zhi Volume Dt
96759.5 743.694 -4.3471e+07 1.72074 286980 -4.3184e+07 703.182 703.182 703.182 2148.41 2851.59 2148.41 2851.59 2148.41 2851.59 3.47698e+08 0.1
Loop time of 7.64437 on 4 procs for 100000 steps with 996 atoms

unfix 4

fix 5 all npt temp 300 300 $(100.0*dt) iso 1.0 1.0 $(1000.0*dt)
fix 5 all npt temp 300 300 10 iso 1.0 1.0 $(1000.0*dt)
fix 5 all npt temp 300 300 10 iso 1.0 1.0 100

run 300000
Generated 0 of 1 mixed pair_coeff terms from geometric mixing rule
Step          Temp          Press          PotEng        Density         KinEng         TotEng           Lx             Ly             Lz            Xlo            Xhi            Ylo            Yhi            Zlo            Zhi           Volume           Dt            Time           CPU           T/CPU          S/CPU         CPULeft
59205000   5142.722       327.81117     -43651147       1.7207362      15252.83      -43635894       703.18154      703.18154      703.18154      2148.4092      2851.5908      2148.4092      2851.5908      2148.4092      2851.5908      3.4769816e+08  0.1            17125000       0              0              0              0
Averages over the last 751 of 1501 rows, steps 59355000 to 59505000:
Temp Press PotEng Density KinEng TotEng Lx Ly Lz Xlo Xhi Ylo Yhi Zlo Zhi Volume Dt
306.167 1.06171 -4.37972e+07 1.7191 908.061 -4.37963e+07 703.405 703.405 703.405 2148.3 2851.7 2148.3 2851.7 2148.3 2851.7 3.48029e+08 0.1
Loop time of 27.5315 on 4 procs for 300000 steps with 996 atoms

# run_style
run_style verlet

# write restart
write_restart ./pgnpmf/37/equpmf85.res
System init for write_restart ...
Generated 0 of 1 mixed pair_coeff terms from geometric mixing rule
