LAMMPS (23 Jun 2022 - Update 1)
# Read restart
read_restart ./pgnpmf/37/equpmf30.res
Reading restart file ...
  restart file = 23 Jun 2022, LAMMPS = 23 Jun 2022
  restoring atom style atomic from restart
  orthogonal box = (1998.0844 1998.0844 1998.0844) to (3001.9156 3001.9156 3001.9156)
  restoring pair style table from restart
  996 atoms
  read_restart CPU = 0.005 seconds

# Settings

pair_style table spline 9941

pair_coeff 1 1 ./pgnpmf/N20.txt DE_GNP 75.6
pair_coeff 2 2 ./pgnpmf/N100.txt DE_GNP 115.92
pair_coeff 1 2 ./pgnpmf/mixed_potential.txt DE_GNP 95.66

#Neigh_list Calc Frequency

neigh_modify delay 0 every 1 check yes

# Saving Frequency (50 frames)

variable ts_save equal 5000

# Dump
#dump_modify 1 first no sort id
dump 2 all cfg 50000 ./pgnpmf/37/equilibration/trajectory/dumpgen.tens_*.cfg mass type xs ys zs fx fy fz
dump_modify 2 element N20 N100

# thermo_style
thermo_style custom step temp press pe density ke etotal lx ly lz xlo xhi ylo yhi zlo zhi vol dt time cpu tpcpu spcpu cpuremain

# run info
timestep 0.5
thermo 200

# fix

fix 1 all momentum 1000 linear 1 1 1 angular
variable T equal 300
fix 2 all nvt temp 300 370000 100.0

run 100000
Generated 0 of 1 mixed pair_coeff terms from geometric mixing rule
Unused restart file global fix info:
  fix style: npt, fix ID: 5
  update every 1 steps, delay 0 steps, check yes
Step          Temp          Press          PotEng        Density         KinEng         TotEng           Lx             Ly             Lz            Xlo            Xhi            Ylo            Yhi            Zlo            Zhi           Volume           Dt            Time           CPU           T/CPU          S/CPU         CPULeft
21005000   308.44738      1.454982      -35972518       0.59147244     914.82592     -35971604       1003.8313      1003.8313      1003.8313      1998.0844      3001.9156      1998.0844      3001.9156      1998.0844      3001.9156      1.0115379e+09  0.5            10505000       0              0              0              0
Averages over the last 251 of 501 rows, steps 21055000 to 21105000:
Temp Press PotEng Density KinEng TotEng Lx Ly Lz Xlo Xhi Ylo Yhi Zlo Zhi Volume Dt
277341 40.883 -3.53862e+07 0.591472 822567 -3.45636e+07 1003.83 1003.83 1003.83 1998.08 3001.92 1998.08 3001.92 1998.08 3001.92 1.01154e+09 0.5
Loop time of 9.39382 on 4 procs for 100000 steps with 996 atoms

unfix 2

fix 3 all nvt temp 370000 370000 $(100.0*dt) #iso 1.0 1.0 $(1000.0*dt)
fix 3 all nvt temp 370000 370000 50

run 200000
Generated 0 of 1 mixed pair_coeff terms from geometric mixing rule
Step          Temp          Press          PotEng        Density         KinEng         TotEng           Lx             Ly             Lz            Xlo            Xhi            Ylo            Yhi            Zlo            Zhi           Volume           Dt            Time           CPU           T/CPU          S/CPU         CPULeft
21105000   365120.48      18.824185     -34748359       0.59147244     1082913       -33665446       1003.8313      1003.8313      1003.8313      1998.0844      3001.9156      1998.0844      3001.9156      1998.0844      3001.9156      1.0115379e+09  0.5            10555000       0              0              0              0
Averages over the last 501 of 1001 rows, steps 21205000 to 21305000:
Temp Press PotEng Density KinEng TotEng Lx Ly Lz Xlo Xhi Ylo Yhi Zlo Zhi Volume Dt
369915 6.18747 -3.39985e+07 0.591472 1.09713e+06 -3.29013e+07 1003.83 1003.83 1003.83 1998.08 3001.92 1998.08 3001.92 1998.08 3001.92 1.01154e+09 0.5
Loop time of 18.705 on 4 procs for 200000 steps with 996 atoms

unfix 3

fix 4 all nvt temp 370000 300 100.0

run 100000
Generated 0 of 1 mixed pair_coeff terms from geometric mixing rule
Step          Temp          Press          PotEng        Density         KinEng         TotEng           Lx             Ly             Lz            Xlo            Xhi            Ylo            Yhi            Zlo            Zhi           Volume           Dt            Time           CPU           T/CPU          S/CPU         CPULeft
21305000   383296.87      8.2947472     -33958010       0.59147244     1136822.5     -32821188       1003.8313      1003.8313      1003.8313      1998.0844      3001.9156      1998.0844      3001.9156      1998.0844      3001.9156      1.0115379e+09  0.5            10655000       0              0              0              0
Averages over the last 251 of 501 rows, steps 21355000 to 21405000:
Temp Press PotEng Density KinEng TotEng Lx Ly Lz Xlo Xhi Ylo Yhi Zlo Zhi Volume Dt
93104.2 -115.899 -3.50215e+07 0.591472 276138 -3.47453e+07 1003.83 1003.83 1003.83 1998.08 3001.92 1998.08 3001.92 1998.08 3001.92 1.01154e+09 0.5
Loop time of 9.32854 on 4 procs for 100000 steps with 996 atoms

unfix 4

fix 5 all npt temp 300 300 $(100.0*dt) iso 1.0 1.0 $(1000.0*dt)
fix 5 all npt temp 300 300 50 iso 1.0 1.0 $(1000.0*dt)
fix 5 all npt temp 300 300 50 iso 1.0 1.0 500

run 300000
Generated 0 of 1 mixed pair_coeff terms from geometric mixing rule
Step          Temp          Press          PotEng        Density         KinEng         TotEng           Lx             Ly             Lz            Xlo            Xhi            Ylo            Yhi            Zlo            Zhi           Volume           Dt            Time           CPU           T/CPU          S/CPU         CPULeft
21405000   1359.4527     -129.90734     -35483627       0.59147244     4032.0088     -35479595       1003.8313      1003.8313      1003.8313      1998.0844      3001.9156      1998.0844      3001.9156      1998.0844      3001.9156      1.0115379e+09  0.5            10705000       0              0              0              0
Averages over the last 751 of 1501 rows, steps 21555000 to 21705000:
Temp Press PotEng Density KinEng TotEng Lx Ly Lz Xlo Xhi Ylo Yhi Zlo Zhi Volume Dt
307.851 1.03743 -3.58748e+07 0.608773 913.058 -3.58739e+07 994.233 994.233 994.233 2002.88 2997.12 2002.88 2997.12 2002.88 2997.12 9.828e+08 0.5
Loop time of 33.912 on 4 procs for 300000 steps with 996 atoms

# run_style
run_style verlet

# write restart
write_restart ./pgnpmf/37/equpmf31.res
System init for write_restart ...
Generated 0 of 1 mixed pair_coeff terms from geometric mixing rule
