LAMMPS (23 Jun 2022 - Update 1)
# Read restart
read_restart ./pgnpmf/37/equpmf32.res
Reading restart file ...
  restart file = 23 Jun 2022, LAMMPS = 23 Jun 2022
  restoring atom style atomic from restart
  orthogonal box = (2010.0521 2010.0521 2010.0521) to (2989.9479 2989.9479 2989.9479)
  restoring pair style table from restart
  996 atoms
  read_restart CPU = 0.006 seconds

# Settings

pair_style table spline 9941

pair_coeff 1 1 ./pgnpmf/N20.txt DE_GNP 75.6
pair_coeff 2 2 ./pgnpmf/N100.txt DE_GNP 115.92
pair_coeff 1 2 ./pgnpmf/mixed_potential.txt DE_GNP 95.66

#Neigh_list Calc Frequency

neigh_modify delay 0 every 1 check yes

# Saving Frequency (50 frames)

variable ts_save equal 5000

# Dump
#dump_modify 1 first no sort id
dump 2 all cfg 50000 ./pgnpmf/37/equilibration/trajectory/dumpgen.tens_*.cfg mass type xs ys zs fx fy fz
dump_modify 2 element N20 N100

# thermo_style
thermo_style custom step temp press pe density ke etotal lx ly lz xlo xhi ylo yhi zlo zhi vol dt time cpu tpcpu spcpu cpuremain

# run info
timestep 0.5
thermo 200

# fix

fix 1 all momentum 1000 linear 1 1 1 angular
variable T equal 300
fix 2 all nvt temp 300 370000 100.0

run 100000
Generated 0 of 1 mixed pair_coeff terms from geometric mixing rule
Unused restart file global fix info:
  fix style: npt, fix ID: 5
  update every 1 steps, delay 0 steps, check yes
Step          Temp          Press          PotEng        Density         KinEng         TotEng           Lx             Ly             Lz            Xlo            Xhi            Ylo            Yhi            Zlo            Zhi           Volume           Dt            Time           CPU           T/CPU          S/CPU         CPULeft
22405000   308.27856      2.1051727     -36568901       0.63588284     914.32522     -36567987       979.89572      979.89572      979.89572      2010.0521      2989.9479      2010.0521      2989.9479      2010.0521      2989.9479      9.4089159e+08  0.5            11205000       0              0              0              0
Averages over the last 251 of 501 rows, steps 22455000 to 22505000:
Temp Press PotEng Density KinEng TotEng Lx Ly Lz Xlo Xhi Ylo Yhi Zlo Zhi Volume Dt
277505 52.028 -3.57641e+07 0.635883 823053 -3.49411e+07 979.896 979.896 979.896 2010.05 2989.95 2010.05 2989.95 2010.05 2989.95 9.40892e+08 0.5
Loop time of 9.63064 on 4 procs for 100000 steps with 996 atoms

unfix 2

fix 3 all nvt temp 370000 370000 $(100.0*dt) #iso 1.0 1.0 $(1000.0*dt)
fix 3 all nvt temp 370000 370000 50

run 200000
Generated 0 of 1 mixed pair_coeff terms from geometric mixing rule
Step          Temp          Press          PotEng        Density         KinEng         TotEng           Lx             Ly             Lz            Xlo            Xhi            Ylo            Yhi            Zlo            Zhi           Volume           Dt            Time           CPU           T/CPU          S/CPU         CPULeft
22505000   373391.19     -10.038493     -35186522       0.63588284     1107443.2     -34079079       979.89572      979.89572      979.89572      2010.0521      2989.9479      2010.0521      2989.9479      2010.0521      2989.9479      9.4089159e+08  0.5            11255000       0              0              0              0
Averages over the last 501 of 1001 rows, steps 22605000 to 22705000:
Temp Press PotEng Density KinEng TotEng Lx Ly Lz Xlo Xhi Ylo Yhi Zlo Zhi Volume Dt
369867 16.4814 -3.43419e+07 0.635883 1.09699e+06 -3.32449e+07 979.896 979.896 979.896 2010.05 2989.95 2010.05 2989.95 2010.05 2989.95 9.40892e+08 0.5
Loop time of 19.0665 on 4 procs for 200000 steps with 996 atoms

unfix 3

fix 4 all nvt temp 370000 300 100.0

run 100000
Generated 0 of 1 mixed pair_coeff terms from geometric mixing rule
Step          Temp          Press          PotEng        Density         KinEng         TotEng           Lx             Ly             Lz            Xlo            Xhi            Ylo            Yhi            Zlo            Zhi           Volume           Dt            Time           CPU           T/CPU          S/CPU         CPULeft
22705000   378791.96      35.047318     -34377411       0.63588284     1123461.3     -33253950       979.89572      979.89572      979.89572      2010.0521      2989.9479      2010.0521      2989.9479      2010.0521      2989.9479      9.4089159e+08  0.5            11355000       0              0              0              0
Averages over the last 251 of 501 rows, steps 22755000 to 22805000:
Temp Press PotEng Density KinEng TotEng Lx Ly Lz Xlo Xhi Ylo Yhi Zlo Zhi Volume Dt
93112.8 -151.9 -3.56702e+07 0.635883 276164 -3.5394e+07 979.896 979.896 979.896 2010.05 2989.95 2010.05 2989.95 2010.05 2989.95 9.40892e+08 0.5
Loop time of 9.55893 on 4 procs for 100000 steps with 996 atoms

unfix 4

fix 5 all npt temp 300 300 $(100.0*dt) iso 1.0 1.0 $(1000.0*dt)
fix 5 all npt temp 300 300 50 iso 1.0 1.0 $(1000.0*dt)
fix 5 all npt temp 300 300 50 iso 1.0 1.0 500

run 300000
Generated 0 of 1 mixed pair_coeff terms from geometric mixing rule
Step          Temp          Press          PotEng        Density         KinEng         TotEng           Lx             Ly             Lz            Xlo            Xhi            Ylo            Yhi            Zlo            Zhi           Volume           Dt            Time           CPU           T/CPU          S/CPU         CPULeft
22805000   1357.7954     -165.91995     -36154498       0.63588284     4027.0935     -36150471       979.89572      979.89572      979.89572      2010.0521      2989.9479      2010.0521      2989.9479      2010.0521      2989.9479      9.4089159e+08  0.5            11405000       0              0              0              0
Averages over the last 751 of 1501 rows, steps 22955000 to 23105000:
Temp Press PotEng Density KinEng TotEng Lx Ly Lz Xlo Xhi Ylo Yhi Zlo Zhi Volume Dt
308.399 0.941997 -3.66187e+07 0.655078 914.684 -3.66178e+07 970.231 970.231 970.231 2014.88 2985.12 2014.88 2985.12 2014.88 2985.12 9.13327e+08 0.5
Loop time of 34.6253 on 4 procs for 300000 steps with 996 atoms

# run_style
run_style verlet

# write restart
write_restart ./pgnpmf/37/equpmf33.res
System init for write_restart ...
Generated 0 of 1 mixed pair_coeff terms from geometric mixing rule
