LAMMPS (23 Jun 2022 - Update 1)
# Read restart
read_restart ./pgnpmf/400600/equpmf5.res
Reading restart file ...
  restart file = 23 Jun 2022, LAMMPS = 23 Jun 2022
  restoring atom style atomic from restart
  orthogonal box = (1667.6824 1667.6824 1667.6824) to (3332.3176 3332.3176 3332.3176)
  restoring pair style table from restart
  1000 atoms
  read_restart CPU = 0.006 seconds

# Settings

pair_style table spline 9941

pair_coeff 1 1 ./pgnpmf/N20.txt DE_GNP 75.6
pair_coeff 2 2 ./pgnpmf/N100.txt DE_GNP 115.92
pair_coeff 1 2 ./pgnpmf/mixed_potential.txt DE_GNP 95.66

#Neigh_list Calc Frequency

neigh_modify delay 0 every 1 check yes

# Saving Frequency (50 frames)

variable ts_save equal 5000

# Dump
#dump_modify 1 first no sort id
#dump 2 all cfg 50000 ./equilibration/trajectory/ovito/dumpgen.tens_*.cfg mass type xs ys zs fx fy fz

# thermo_style
thermo_style custom step temp press pe density ke etotal lx ly lz xlo xhi ylo yhi zlo zhi vol dt time cpu tpcpu spcpu cpuremain

# run info
timestep 0.5
thermo 200

# fix

fix 1 all momentum 1000 linear 1 1 1 angular
variable T equal 300
fix 2 all nvt temp 300 370000 100.0

run 100000
Generated 0 of 1 mixed pair_coeff terms from geometric mixing rule
Unused restart file global fix info:
  fix style: npt, fix ID: 5
  update every 1 steps, delay 0 steps, check yes
Step          Temp          Press          PotEng        Density         KinEng         TotEng           Lx             Ly             Lz            Xlo            Xhi            Ylo            Yhi            Zlo            Zhi           Volume           Dt            Time           CPU           T/CPU          S/CPU         CPULeft
3505000   310.57594      0.82027005    -6230163.2      0.12310653     924.84211     -6229238.3      1664.6353      1664.6353      1664.6353      1667.6824      3332.3176      1667.6824      3332.3176      1667.6824      3332.3176      4.6127218e+09  0.5            1755000        0              0              0              0
Averages over the last 251 of 501 rows, steps 3555000 to 3605000:
Temp Press PotEng Density KinEng TotEng Lx Ly Lz Xlo Xhi Ylo Yhi Zlo Zhi Volume Dt
277502 3.91228 -6.1149e+06 0.123107 826353 -5.28855e+06 1664.64 1664.64 1664.64 1667.68 3332.32 1667.68 3332.32 1667.68 3332.32 4.61272e+09 0.5
Loop time of 5.51531 on 1 procs for 100000 steps with 1000 atoms

unfix 2

fix 3 all nvt temp 370000 370000 $(100.0*dt) #iso 1.0 1.0 $(1000.0*dt)
fix 3 all nvt temp 370000 370000 50

run 200000
Generated 0 of 1 mixed pair_coeff terms from geometric mixing rule
Step          Temp          Press          PotEng        Density         KinEng         TotEng           Lx             Ly             Lz            Xlo            Xhi            Ylo            Yhi            Zlo            Zhi           Volume           Dt            Time           CPU           T/CPU          S/CPU         CPULeft
3605000   373000.11      9.6774825     -5930615.4      0.12310653     1110730.6     -4819884.8      1664.6353      1664.6353      1664.6353      1667.6824      3332.3176      1667.6824      3332.3176      1667.6824      3332.3176      4.6127218e+09  0.5            1805000        0              0              0              0
Averages over the last 501 of 1001 rows, steps 3705000 to 3805000:
Temp Press PotEng Density KinEng TotEng Lx Ly Lz Xlo Xhi Ylo Yhi Zlo Zhi Volume Dt
369761 6.46321 -6.03875e+06 0.123107 1.10109e+06 -4.93766e+06 1664.64 1664.64 1664.64 1667.68 3332.32 1667.68 3332.32 1667.68 3332.32 4.61272e+09 0.5
Loop time of 11.0196 on 1 procs for 200000 steps with 1000 atoms

unfix 3

fix 4 all nvt temp 370000 300 100.0

run 100000
Generated 0 of 1 mixed pair_coeff terms from geometric mixing rule
Step          Temp          Press          PotEng        Density         KinEng         TotEng           Lx             Ly             Lz            Xlo            Xhi            Ylo            Yhi            Zlo            Zhi           Volume           Dt            Time           CPU           T/CPU          S/CPU         CPULeft
3805000   369853.79      8.515346      -6221997.5      0.12310653     1101361.4     -5120636.1      1664.6353      1664.6353      1664.6353      1667.6824      3332.3176      1667.6824      3332.3176      1667.6824      3332.3176      4.6127218e+09  0.5            1905000        0              0              0              0
Averages over the last 251 of 501 rows, steps 3855000 to 3905000:
Temp Press PotEng Density KinEng TotEng Lx Ly Lz Xlo Xhi Ylo Yhi Zlo Zhi Volume Dt
92968.3 -5.50122 -6.90706e+06 0.123107 276844 -6.63021e+06 1664.64 1664.64 1664.64 1667.68 3332.32 1667.68 3332.32 1667.68 3332.32 4.61272e+09 0.5
Loop time of 5.55086 on 1 procs for 100000 steps with 1000 atoms

unfix 4

fix 5 all npt temp 300 300 $(100.0*dt) iso 1.0 1.0 $(1000.0*dt)
fix 5 all npt temp 300 300 50 iso 1.0 1.0 $(1000.0*dt)
fix 5 all npt temp 300 300 50 iso 1.0 1.0 500

run 300000
Generated 0 of 1 mixed pair_coeff terms from geometric mixing rule
Step          Temp          Press          PotEng        Density         KinEng         TotEng           Lx             Ly             Lz            Xlo            Xhi            Ylo            Yhi            Zlo            Zhi           Volume           Dt            Time           CPU           T/CPU          S/CPU         CPULeft
3905000   1348.915      -10.598367     -7270639.9      0.12310653     4016.8386     -7266623        1664.6353      1664.6353      1664.6353      1667.6824      3332.3176      1667.6824      3332.3176      1667.6824      3332.3176      4.6127218e+09  0.5            1955000        0              0              0              0
Averages over the last 751 of 1501 rows, steps 4055000 to 4205000:
Temp Press PotEng Density KinEng TotEng Lx Ly Lz Xlo Xhi Ylo Yhi Zlo Zhi Volume Dt
312.644 0.999336 -7.78867e+06 0.143995 931.001 -7.78774e+06 1580.06 1580.06 1580.06 1709.97 3290.03 1709.97 3290.03 1709.97 3290.03 3.9453e+09 0.5
Loop time of 24.7032 on 1 procs for 300000 steps with 1000 atoms

# run_style
run_style verlet

# write restart
write_restart ./pgnpmf/400600/equpmf6.res
System init for write_restart ...
Generated 0 of 1 mixed pair_coeff terms from geometric mixing rule
