LAMMPS (23 Jun 2022 - Update 1)
# Read restart
read_restart ./pgnpmf/400600/equpmf12.res
Reading restart file ...
  restart file = 23 Jun 2022, LAMMPS = 23 Jun 2022
  restoring atom style atomic from restart
  orthogonal box = (1890.4412 1890.4412 1890.4412) to (3109.5588 3109.5588 3109.5588)
  restoring pair style table from restart
  1000 atoms
  read_restart CPU = 0.007 seconds

# Settings

pair_style table spline 9941

pair_coeff 1 1 ./pgnpmf/N20.txt DE_GNP 75.6
pair_coeff 2 2 ./pgnpmf/N100.txt DE_GNP 115.92
pair_coeff 1 2 ./pgnpmf/mixed_potential.txt DE_GNP 95.66

#Neigh_list Calc Frequency

neigh_modify delay 0 every 1 check yes

# Saving Frequency (50 frames)

variable ts_save equal 5000

# Dump
#dump_modify 1 first no sort id
#dump 2 all cfg 50000 ./equilibration/trajectory/ovito/dumpgen.tens_*.cfg mass type xs ys zs fx fy fz

# thermo_style
thermo_style custom step temp press pe density ke etotal lx ly lz xlo xhi ylo yhi zlo zhi vol dt time cpu tpcpu spcpu cpuremain

# run info
timestep 0.5
thermo 200

# fix

fix 1 all momentum 1000 linear 1 1 1 angular
variable T equal 300
fix 2 all nvt temp 300 370000 100.0

run 100000
Generated 0 of 1 mixed pair_coeff terms from geometric mixing rule
Unused restart file global fix info:
  fix style: npt, fix ID: 5
  update every 1 steps, delay 0 steps, check yes
Step          Temp          Press          PotEng        Density         KinEng         TotEng           Lx             Ly             Lz            Xlo            Xhi            Ylo            Yhi            Zlo            Zhi           Volume           Dt            Time           CPU           T/CPU          S/CPU         CPULeft
8405000   312.86288      1.4515339     -18927374       0.31340185     931.65224     -18926443       1219.1176      1219.1176      1219.1176      1890.4412      3109.5588      1890.4412      3109.5588      1890.4412      3109.5588      1.8119107e+09  0.5            4205000        0              0              0              0
Averages over the last 251 of 501 rows, steps 8455000 to 8505000:
Temp Press PotEng Density KinEng TotEng Lx Ly Lz Xlo Xhi Ylo Yhi Zlo Zhi Volume Dt
277728 19.4929 -1.90885e+07 0.313402 827025 -1.82614e+07 1219.12 1219.12 1219.12 1890.44 3109.56 1890.44 3109.56 1890.44 3109.56 1.81191e+09 0.5
Loop time of 8.9074 on 1 procs for 100000 steps with 1000 atoms

unfix 2

fix 3 all nvt temp 370000 370000 $(100.0*dt) #iso 1.0 1.0 $(1000.0*dt)
fix 3 all nvt temp 370000 370000 50

run 200000
Generated 0 of 1 mixed pair_coeff terms from geometric mixing rule
Step          Temp          Press          PotEng        Density         KinEng         TotEng           Lx             Ly             Lz            Xlo            Xhi            Ylo            Yhi            Zlo            Zhi           Volume           Dt            Time           CPU           T/CPU          S/CPU         CPULeft
8505000   380266.15      15.030876     -18692563       0.31340185     1132367.7     -17560196       1219.1176      1219.1176      1219.1176      1890.4412      3109.5588      1890.4412      3109.5588      1890.4412      3109.5588      1.8119107e+09  0.5            4255000        0              0              0              0
Averages over the last 501 of 1001 rows, steps 8605000 to 8705000:
Temp Press PotEng Density KinEng TotEng Lx Ly Lz Xlo Xhi Ylo Yhi Zlo Zhi Volume Dt
369850 8.10407 -1.81645e+07 0.313402 1.10135e+06 -1.70631e+07 1219.12 1219.12 1219.12 1890.44 3109.56 1890.44 3109.56 1890.44 3109.56 1.81191e+09 0.5
Loop time of 17.8006 on 1 procs for 200000 steps with 1000 atoms

unfix 3

fix 4 all nvt temp 370000 300 100.0

run 100000
Generated 0 of 1 mixed pair_coeff terms from geometric mixing rule
Step          Temp          Press          PotEng        Density         KinEng         TotEng           Lx             Ly             Lz            Xlo            Xhi            Ylo            Yhi            Zlo            Zhi           Volume           Dt            Time           CPU           T/CPU          S/CPU         CPULeft
8705000   359080.55      9.924683      -18118222       0.31340185     1069280.6     -17048941       1219.1176      1219.1176      1219.1176      1890.4412      3109.5588      1890.4412      3109.5588      1890.4412      3109.5588      1.8119107e+09  0.5            4355000        0              0              0              0
Averages over the last 251 of 501 rows, steps 8755000 to 8805000:
Temp Press PotEng Density KinEng TotEng Lx Ly Lz Xlo Xhi Ylo Yhi Zlo Zhi Volume Dt
92989.9 -39.5917 -1.96964e+07 0.313402 276908 -1.94195e+07 1219.12 1219.12 1219.12 1890.44 3109.56 1890.44 3109.56 1890.44 3109.56 1.81191e+09 0.5
Loop time of 8.79757 on 1 procs for 100000 steps with 1000 atoms

unfix 4

fix 5 all npt temp 300 300 $(100.0*dt) iso 1.0 1.0 $(1000.0*dt)
fix 5 all npt temp 300 300 50 iso 1.0 1.0 $(1000.0*dt)
fix 5 all npt temp 300 300 50 iso 1.0 1.0 500

run 300000
Generated 0 of 1 mixed pair_coeff terms from geometric mixing rule
Step          Temp          Press          PotEng        Density         KinEng         TotEng           Lx             Ly             Lz            Xlo            Xhi            Ylo            Yhi            Zlo            Zhi           Volume           Dt            Time           CPU           T/CPU          S/CPU         CPULeft
8805000   1367.4766     -55.359592     -20232322       0.31340185     4072.1119     -20228250       1219.1176      1219.1176      1219.1176      1890.4412      3109.5588      1890.4412      3109.5588      1890.4412      3109.5588      1.8119107e+09  0.5            4405000        0              0              0              0
Averages over the last 751 of 1501 rows, steps 8955000 to 9105000:
Temp Press PotEng Density KinEng TotEng Lx Ly Lz Xlo Xhi Ylo Yhi Zlo Zhi Volume Dt
311.789 1.01291 -2.07965e+07 0.333607 928.456 -2.07956e+07 1194 1194 1194 1903 3097 1903 3097 1903 3097 1.70226e+09 0.5
Loop time of 34.4872 on 1 procs for 300000 steps with 1000 atoms

# run_style
run_style verlet

# write restart
write_restart ./pgnpmf/400600/equpmf13.res
System init for write_restart ...
Generated 0 of 1 mixed pair_coeff terms from geometric mixing rule
