LAMMPS (23 Jun 2022 - Update 1)
# Read restart
read_restart ./pgnpmf/400600/equpmf56.res
Reading restart file ...
  restart file = 23 Jun 2022, LAMMPS = 23 Jun 2022
  restoring atom style atomic from restart
  orthogonal box = (2157.0452 2157.0452 2157.0452) to (2842.9548 2842.9548 2842.9548)
  restoring pair style table from restart
  1000 atoms
  read_restart CPU = 0.049 seconds

# Settings

pair_style table spline 9941

pair_coeff 1 1 ./pgnpmf/N20.txt DE_GNP 75.6
pair_coeff 2 2 ./pgnpmf/N100.txt DE_GNP 115.92
pair_coeff 1 2 ./pgnpmf/mixed_potential.txt DE_GNP 95.66

#Neigh_list Calc Frequency

neigh_modify delay 0 every 1 check yes

# Saving Frequency (50 frames)

variable ts_save equal 5000

# Dump
#dump_modify 1 first no sort id
#dump 2 all cfg 50000 ./equilibration/trajectory/ovito/dumpgen.tens_*.cfg mass type xs ys zs fx fy fz

# thermo_style
thermo_style custom step temp press pe density ke etotal lx ly lz xlo xhi ylo yhi zlo zhi vol dt time cpu tpcpu spcpu cpuremain

# run info
timestep 0.1
thermo 200

# fix

fix 1 all momentum 1000 linear 1 1 1 angular
variable T equal 300
fix 2 all nvt temp 300 370000 100.0

run 100000
Generated 0 of 1 mixed pair_coeff terms from geometric mixing rule
Unused restart file global fix info:
  fix style: npt, fix ID: 5
  update every 1 steps, delay 0 steps, check yes
Step          Temp          Press          PotEng        Density         KinEng         TotEng           Lx             Ly             Lz            Xlo            Xhi            Ylo            Yhi            Zlo            Zhi           Volume           Dt            Time           CPU           T/CPU          S/CPU         CPULeft
39205000   305.00228     -0.49182302    -37815759       1.7596961      908.2447      -37814851       685.90961      685.90961      685.90961      2157.0452      2842.9548      2157.0452      2842.9548      2157.0452      2842.9548      3.2270126e+08  0.1            10085000       0              0              0              0
Averages over the last 251 of 501 rows, steps 39255000 to 39305000:
Temp Press PotEng Density KinEng TotEng Lx Ly Lz Xlo Xhi Ylo Yhi Zlo Zhi Volume Dt
277295 648.194 -3.76463e+07 1.7597 825736 -3.68205e+07 685.91 685.91 685.91 2157.05 2842.95 2157.05 2842.95 2157.05 2842.95 3.22701e+08 0.1
Loop time of 13.6515 on 1 procs for 100000 steps with 1000 atoms

unfix 2

fix 3 all nvt temp 370000 370000 $(100.0*dt) #iso 1.0 1.0 $(1000.0*dt)
fix 3 all nvt temp 370000 370000 10

run 200000
Generated 0 of 1 mixed pair_coeff terms from geometric mixing rule
Step          Temp          Press          PotEng        Density         KinEng         TotEng           Lx             Ly             Lz            Xlo            Xhi            Ylo            Yhi            Zlo            Zhi           Volume           Dt            Time           CPU           T/CPU          S/CPU         CPULeft
39305000   361551.91      1178.7184     -37324261       1.7596961      1076639.9     -36247621       685.90961      685.90961      685.90961      2157.0452      2842.9548      2157.0452      2842.9548      2157.0452      2842.9548      3.2270126e+08  0.1            10095000       0              0              0              0
Averages over the last 501 of 1001 rows, steps 39405000 to 39505000:
Temp Press PotEng Density KinEng TotEng Lx Ly Lz Xlo Xhi Ylo Yhi Zlo Zhi Volume Dt
369942 1840.76 -3.71291e+07 1.7597 1.10163e+06 -3.60275e+07 685.91 685.91 685.91 2157.05 2842.95 2157.05 2842.95 2157.05 2842.95 3.22701e+08 0.1
Loop time of 27.6267 on 1 procs for 200000 steps with 1000 atoms

unfix 3

fix 4 all nvt temp 370000 300 100.0

run 100000
Generated 0 of 1 mixed pair_coeff terms from geometric mixing rule
Step          Temp          Press          PotEng        Density         KinEng         TotEng           Lx             Ly             Lz            Xlo            Xhi            Ylo            Yhi            Zlo            Zhi           Volume           Dt            Time           CPU           T/CPU          S/CPU         CPULeft
39505000   361477.46      1880.8736     -37006389       1.7596961      1076418.2     -35929971       685.90961      685.90961      685.90961      2157.0452      2842.9548      2157.0452      2842.9548      2157.0452      2842.9548      3.2270126e+08  0.1            10115000       0              0              0              0
Averages over the last 251 of 501 rows, steps 39555000 to 39605000:
Temp Press PotEng Density KinEng TotEng Lx Ly Lz Xlo Xhi Ylo Yhi Zlo Zhi Volume Dt
96525.3 706.546 -3.74523e+07 1.7597 287436 -3.71649e+07 685.91 685.91 685.91 2157.05 2842.95 2157.05 2842.95 2157.05 2842.95 3.22701e+08 0.1
Loop time of 13.7833 on 1 procs for 100000 steps with 1000 atoms

unfix 4

fix 5 all npt temp 300 300 $(100.0*dt) iso 1.0 1.0 $(1000.0*dt)
fix 5 all npt temp 300 300 10 iso 1.0 1.0 $(1000.0*dt)
fix 5 all npt temp 300 300 10 iso 1.0 1.0 100

run 300000
Generated 0 of 1 mixed pair_coeff terms from geometric mixing rule
Step          Temp          Press          PotEng        Density         KinEng         TotEng           Lx             Ly             Lz            Xlo            Xhi            Ylo            Yhi            Zlo            Zhi           Volume           Dt            Time           CPU           T/CPU          S/CPU         CPULeft
39605000   5228.5359      251.57277     -37615421       1.7596961      15569.687     -37599851       685.90961      685.90961      685.90961      2157.0452      2842.9548      2157.0452      2842.9548      2157.0452      2842.9548      3.2270126e+08  0.1            10125000       0              0              0              0
Averages over the last 751 of 1501 rows, steps 39755000 to 39905000:
Temp Press PotEng Density KinEng TotEng Lx Ly Lz Xlo Xhi Ylo Yhi Zlo Zhi Volume Dt
306.511 0.819643 -3.78257e+07 1.76123 912.737 -3.78248e+07 685.71 685.71 685.71 2157.15 2842.85 2157.15 2842.85 2157.15 2842.85 3.2242e+08 0.1
Loop time of 47.9857 on 1 procs for 300000 steps with 1000 atoms

# run_style
run_style verlet

# write restart
write_restart ./pgnpmf/400600/equpmf57.res
System init for write_restart ...
Generated 0 of 1 mixed pair_coeff terms from geometric mixing rule
