LAMMPS (23 Jun 2022 - Update 1)
# Read restart
read_restart ./pgnpmf/400600/equpmf26.res
Reading restart file ...
  restart file = 23 Jun 2022, LAMMPS = 23 Jun 2022
  restoring atom style atomic from restart
  orthogonal box = (2008.4789 2008.4789 2008.4789) to (2991.5211 2991.5211 2991.5211)
  restoring pair style table from restart
  1000 atoms
  read_restart CPU = 0.008 seconds

# Settings

pair_style table spline 9941

pair_coeff 1 1 ./pgnpmf/N20.txt DE_GNP 75.6
pair_coeff 2 2 ./pgnpmf/N100.txt DE_GNP 115.92
pair_coeff 1 2 ./pgnpmf/mixed_potential.txt DE_GNP 95.66

#Neigh_list Calc Frequency

neigh_modify delay 0 every 1 check yes

# Saving Frequency (50 frames)

variable ts_save equal 5000

# Dump
#dump_modify 1 first no sort id
#dump 2 all cfg 50000 ./equilibration/trajectory/ovito/dumpgen.tens_*.cfg mass type xs ys zs fx fy fz

# thermo_style
thermo_style custom step temp press pe density ke etotal lx ly lz xlo xhi ylo yhi zlo zhi vol dt time cpu tpcpu spcpu cpuremain

# run info
timestep 0.1
thermo 200

# fix

fix 1 all momentum 1000 linear 1 1 1 angular
variable T equal 300
fix 2 all nvt temp 300 370000 100.0

run 100000
Generated 0 of 1 mixed pair_coeff terms from geometric mixing rule
Unused restart file global fix info:
  fix style: npt, fix ID: 5
  update every 1 steps, delay 0 steps, check yes
Step          Temp          Press          PotEng        Density         KinEng         TotEng           Lx             Ly             Lz            Xlo            Xhi            Ylo            Yhi            Zlo            Zhi           Volume           Dt            Time           CPU           T/CPU          S/CPU         CPULeft
18205000   310.64331      0.53923958    -28952243       0.59775322     925.04273     -28951318       983.04215      983.04215      983.04215      2008.4789      2991.5211      2008.4789      2991.5211      2008.4789      2991.5211      9.4998427e+08  0.1            7985000        0              0              0              0
Averages over the last 251 of 501 rows, steps 18255000 to 18305000:
Temp Press PotEng Density KinEng TotEng Lx Ly Lz Xlo Xhi Ylo Yhi Zlo Zhi Volume Dt
277564 34.0579 -2.89467e+07 0.597753 826538 -2.81201e+07 983.042 983.042 983.042 2008.48 2991.52 2008.48 2991.52 2008.48 2991.52 9.49984e+08 0.1
Loop time of 12.2539 on 1 procs for 100000 steps with 1000 atoms

unfix 2

fix 3 all nvt temp 370000 370000 $(100.0*dt) #iso 1.0 1.0 $(1000.0*dt)
fix 3 all nvt temp 370000 370000 10

run 200000
Generated 0 of 1 mixed pair_coeff terms from geometric mixing rule
Step          Temp          Press          PotEng        Density         KinEng         TotEng           Lx             Ly             Lz            Xlo            Xhi            Ylo            Yhi            Zlo            Zhi           Volume           Dt            Time           CPU           T/CPU          S/CPU         CPULeft
18305000   382911.67      221.67809     -28851120       0.59775322     1140245.6     -27710874       983.04215      983.04215      983.04215      2008.4789      2991.5211      2008.4789      2991.5211      2008.4789      2991.5211      9.4998427e+08  0.1            7995000        0              0              0              0
Averages over the last 501 of 1001 rows, steps 18405000 to 18505000:
Temp Press PotEng Density KinEng TotEng Lx Ly Lz Xlo Xhi Ylo Yhi Zlo Zhi Volume Dt
369455 64.6591 -2.84379e+07 0.597753 1.10017e+06 -2.73377e+07 983.042 983.042 983.042 2008.48 2991.52 2008.48 2991.52 2008.48 2991.52 9.49984e+08 0.1
Loop time of 24.8851 on 1 procs for 200000 steps with 1000 atoms

unfix 3

fix 4 all nvt temp 370000 300 100.0

run 100000
Generated 0 of 1 mixed pair_coeff terms from geometric mixing rule
Step          Temp          Press          PotEng        Density         KinEng         TotEng           Lx             Ly             Lz            Xlo            Xhi            Ylo            Yhi            Zlo            Zhi           Volume           Dt            Time           CPU           T/CPU          S/CPU         CPULeft
18505000   372797.5      -40.928672     -28170347       0.59775322     1110127.3     -27060220       983.04215      983.04215      983.04215      2008.4789      2991.5211      2008.4789      2991.5211      2008.4789      2991.5211      9.4998427e+08  0.1            8015000        0              0              0              0
Averages over the last 251 of 501 rows, steps 18555000 to 18605000:
Temp Press PotEng Density KinEng TotEng Lx Ly Lz Xlo Xhi Ylo Yhi Zlo Zhi Volume Dt
95779.4 -289.599 -2.8168e+07 0.597753 285215 -2.78828e+07 983.042 983.042 983.042 2008.48 2991.52 2008.48 2991.52 2008.48 2991.52 9.49984e+08 0.1
Loop time of 12.2774 on 1 procs for 100000 steps with 1000 atoms

unfix 4

fix 5 all npt temp 300 300 $(100.0*dt) iso 1.0 1.0 $(1000.0*dt)
fix 5 all npt temp 300 300 10 iso 1.0 1.0 $(1000.0*dt)
fix 5 all npt temp 300 300 10 iso 1.0 1.0 100

run 300000
Generated 0 of 1 mixed pair_coeff terms from geometric mixing rule
Step          Temp          Press          PotEng        Density         KinEng         TotEng           Lx             Ly             Lz            Xlo            Xhi            Ylo            Yhi            Zlo            Zhi           Volume           Dt            Time           CPU           T/CPU          S/CPU         CPULeft
18605000   4940.0497     -383.86314     -28283322       0.59775322     14710.624     -28268612       983.04215      983.04215      983.04215      2008.4789      2991.5211      2008.4789      2991.5211      2008.4789      2991.5211      9.4998427e+08  0.1            8025000        0              0              0              0
Averages over the last 751 of 1501 rows, steps 18755000 to 18905000:
Temp Press PotEng Density KinEng TotEng Lx Ly Lz Xlo Xhi Ylo Yhi Zlo Zhi Volume Dt
312.291 0.988661 -2.90364e+07 0.634463 929.949 -2.90355e+07 963.706 963.706 963.706 2018.15 2981.85 2018.15 2981.85 2018.15 2981.85 8.95026e+08 0.1
Loop time of 45.5047 on 1 procs for 300000 steps with 1000 atoms

# run_style
run_style verlet

# write restart
write_restart ./pgnpmf/400600/equpmf27.res
System init for write_restart ...
Generated 0 of 1 mixed pair_coeff terms from geometric mixing rule
