LAMMPS (23 Jun 2022 - Update 1)
# Read restart
read_restart ./pgnpmf/400600/equpmf33.res
Reading restart file ...
  restart file = 23 Jun 2022, LAMMPS = 23 Jun 2022
  restoring atom style atomic from restart
  orthogonal box = (2073.9852 2073.9852 2073.9852) to (2926.0148 2926.0148 2926.0148)
  restoring pair style table from restart
  1000 atoms
  read_restart CPU = 0.005 seconds

# Settings

pair_style table spline 9941

pair_coeff 1 1 ./pgnpmf/N20.txt DE_GNP 75.6
pair_coeff 2 2 ./pgnpmf/N100.txt DE_GNP 115.92
pair_coeff 1 2 ./pgnpmf/mixed_potential.txt DE_GNP 95.66

#Neigh_list Calc Frequency

neigh_modify delay 0 every 1 check yes

# Saving Frequency (50 frames)

variable ts_save equal 5000

# Dump
#dump_modify 1 first no sort id
#dump 2 all cfg 50000 ./equilibration/trajectory/ovito/dumpgen.tens_*.cfg mass type xs ys zs fx fy fz

# thermo_style
thermo_style custom step temp press pe density ke etotal lx ly lz xlo xhi ylo yhi zlo zhi vol dt time cpu tpcpu spcpu cpuremain

# run info
timestep 0.1
thermo 200

# fix

fix 1 all momentum 1000 linear 1 1 1 angular
variable T equal 300
fix 2 all nvt temp 300 370000 100.0

run 100000
Generated 0 of 1 mixed pair_coeff terms from geometric mixing rule
Unused restart file global fix info:
  fix style: npt, fix ID: 5
  update every 1 steps, delay 0 steps, check yes
Step          Temp          Press          PotEng        Density         KinEng         TotEng           Lx             Ly             Lz            Xlo            Xhi            Ylo            Yhi            Zlo            Zhi           Volume           Dt            Time           CPU           T/CPU          S/CPU         CPULeft
23105000   310.19367      4.55443       -30689256       0.91806662     923.70379     -30688332       852.02966      852.02966      852.02966      2073.9852      2926.0148      2073.9852      2926.0148      2073.9852      2926.0148      6.185348e+08   0.1            8475000        0              0              0              0
Averages over the last 251 of 501 rows, steps 23155000 to 23205000:
Temp Press PotEng Density KinEng TotEng Lx Ly Lz Xlo Xhi Ylo Yhi Zlo Zhi Volume Dt
276802 5.0738 -3.08399e+07 0.918067 824269 -3.00156e+07 852.03 852.03 852.03 2073.99 2926.01 2073.99 2926.01 2073.99 2926.01 6.18535e+08 0.1
Loop time of 13.3177 on 1 procs for 100000 steps with 1000 atoms

unfix 2

fix 3 all nvt temp 370000 370000 $(100.0*dt) #iso 1.0 1.0 $(1000.0*dt)
fix 3 all nvt temp 370000 370000 10

run 200000
Generated 0 of 1 mixed pair_coeff terms from geometric mixing rule
Step          Temp          Press          PotEng        Density         KinEng         TotEng           Lx             Ly             Lz            Xlo            Xhi            Ylo            Yhi            Zlo            Zhi           Volume           Dt            Time           CPU           T/CPU          S/CPU         CPULeft
23205000   381922.34      214.38786     -30784320       0.91806662     1137299.5     -29647020       852.02966      852.02966      852.02966      2073.9852      2926.0148      2073.9852      2926.0148      2073.9852      2926.0148      6.185348e+08   0.1            8485000        0              0              0              0
Averages over the last 501 of 1001 rows, steps 23305000 to 23405000:
Temp Press PotEng Density KinEng TotEng Lx Ly Lz Xlo Xhi Ylo Yhi Zlo Zhi Volume Dt
370239 131.271 -3.0427e+07 0.918067 1.10251e+06 -2.93245e+07 852.03 852.03 852.03 2073.99 2926.01 2073.99 2926.01 2073.99 2926.01 6.18535e+08 0.1
Loop time of 27.0371 on 1 procs for 200000 steps with 1000 atoms

unfix 3

fix 4 all nvt temp 370000 300 100.0

run 100000
Generated 0 of 1 mixed pair_coeff terms from geometric mixing rule
Step          Temp          Press          PotEng        Density         KinEng         TotEng           Lx             Ly             Lz            Xlo            Xhi            Ylo            Yhi            Zlo            Zhi           Volume           Dt            Time           CPU           T/CPU          S/CPU         CPULeft
23405000   373658.11      58.405234     -30099459       0.91806662     1112690       -28986769       852.02966      852.02966      852.02966      2073.9852      2926.0148      2073.9852      2926.0148      2073.9852      2926.0148      6.185348e+08   0.1            8505000        0              0              0              0
Averages over the last 251 of 501 rows, steps 23455000 to 23505000:
Temp Press PotEng Density KinEng TotEng Lx Ly Lz Xlo Xhi Ylo Yhi Zlo Zhi Volume Dt
95823.9 -436.099 -3.02682e+07 0.918067 285347 -2.99829e+07 852.03 852.03 852.03 2073.99 2926.01 2073.99 2926.01 2073.99 2926.01 6.18535e+08 0.1
Loop time of 13.3376 on 1 procs for 100000 steps with 1000 atoms

unfix 4

fix 5 all npt temp 300 300 $(100.0*dt) iso 1.0 1.0 $(1000.0*dt)
fix 5 all npt temp 300 300 10 iso 1.0 1.0 $(1000.0*dt)
fix 5 all npt temp 300 300 10 iso 1.0 1.0 100

run 300000
Generated 0 of 1 mixed pair_coeff terms from geometric mixing rule
Step          Temp          Press          PotEng        Density         KinEng         TotEng           Lx             Ly             Lz            Xlo            Xhi            Ylo            Yhi            Zlo            Zhi           Volume           Dt            Time           CPU           T/CPU          S/CPU         CPULeft
23505000   4995.0164     -595.4015      -30377716       0.91806662     14874.306     -30362842       852.02966      852.02966      852.02966      2073.9852      2926.0148      2073.9852      2926.0148      2073.9852      2926.0148      6.185348e+08   0.1            8515000        0              0              0              0
Averages over the last 751 of 1501 rows, steps 23655000 to 23805000:
Temp Press PotEng Density KinEng TotEng Lx Ly Lz Xlo Xhi Ylo Yhi Zlo Zhi Volume Dt
311.519 0.967426 -3.1198e+07 0.967899 927.65 -3.11971e+07 837.15 837.15 837.15 2081.43 2918.57 2081.43 2918.57 2081.43 2918.57 5.86693e+08 0.1
Loop time of 48.8325 on 1 procs for 300000 steps with 1000 atoms

# run_style
run_style verlet

# write restart
write_restart ./pgnpmf/400600/equpmf34.res
System init for write_restart ...
Generated 0 of 1 mixed pair_coeff terms from geometric mixing rule
