LAMMPS (23 Jun 2022 - Update 1)
# Read restart
read_restart ./pgnpmf/400600/equpmf42.res
Reading restart file ...
  restart file = 23 Jun 2022, LAMMPS = 23 Jun 2022
  restoring atom style atomic from restart
  orthogonal box = (2132.504 2132.504 2132.504) to (2867.496 2867.496 2867.496)
  restoring pair style table from restart
  1000 atoms
  read_restart CPU = 0.004 seconds

# Settings

pair_style table spline 9941

pair_coeff 1 1 ./pgnpmf/N20.txt DE_GNP 75.6
pair_coeff 2 2 ./pgnpmf/N100.txt DE_GNP 115.92
pair_coeff 1 2 ./pgnpmf/mixed_potential.txt DE_GNP 95.66

#Neigh_list Calc Frequency

neigh_modify delay 0 every 1 check yes

# Saving Frequency (50 frames)

variable ts_save equal 5000

# Dump
#dump_modify 1 first no sort id
#dump 2 all cfg 50000 ./equilibration/trajectory/ovito/dumpgen.tens_*.cfg mass type xs ys zs fx fy fz

# thermo_style
thermo_style custom step temp press pe density ke etotal lx ly lz xlo xhi ylo yhi zlo zhi vol dt time cpu tpcpu spcpu cpuremain

# run info
timestep 0.1
thermo 200

# fix

fix 1 all momentum 1000 linear 1 1 1 angular
variable T equal 300
fix 2 all nvt temp 300 370000 100.0

run 100000
Generated 0 of 1 mixed pair_coeff terms from geometric mixing rule
Unused restart file global fix info:
  fix style: npt, fix ID: 5
  update every 1 steps, delay 0 steps, check yes
Step          Temp          Press          PotEng        Density         KinEng         TotEng           Lx             Ly             Lz            Xlo            Xhi            Ylo            Yhi            Zlo            Zhi           Volume           Dt            Time           CPU           T/CPU          S/CPU         CPULeft
29405000   308.14348      4.9656676     -34689170       1.4301798      917.59866     -34688252       734.99193      734.99193      734.99193      2132.504       2867.496       2132.504       2867.496       2132.504       2867.496       3.9705229e+08  0.1            9105000        0              0              0              0
Averages over the last 251 of 501 rows, steps 29455000 to 29505000:
Temp Press PotEng Density KinEng TotEng Lx Ly Lz Xlo Xhi Ylo Yhi Zlo Zhi Volume Dt
276860 270.875 -3.467e+07 1.43018 824441 -3.38456e+07 734.992 734.992 734.992 2132.5 2867.5 2132.5 2867.5 2132.5 2867.5 3.97052e+08 0.1
Loop time of 12.458 on 1 procs for 100000 steps with 1000 atoms

unfix 2

fix 3 all nvt temp 370000 370000 $(100.0*dt) #iso 1.0 1.0 $(1000.0*dt)
fix 3 all nvt temp 370000 370000 10

run 200000
Generated 0 of 1 mixed pair_coeff terms from geometric mixing rule
Step          Temp          Press          PotEng        Density         KinEng         TotEng           Lx             Ly             Lz            Xlo            Xhi            Ylo            Yhi            Zlo            Zhi           Volume           Dt            Time           CPU           T/CPU          S/CPU         CPULeft
29505000   375200.9       657.26444     -34481204       1.4301798      1117284.2     -33363920       734.99193      734.99193      734.99193      2132.504       2867.496       2132.504       2867.496       2132.504       2867.496       3.9705229e+08  0.1            9115000        0              0              0              0
Averages over the last 501 of 1001 rows, steps 29605000 to 29705000:
Temp Press PotEng Density KinEng TotEng Lx Ly Lz Xlo Xhi Ylo Yhi Zlo Zhi Volume Dt
369832 639.336 -3.43903e+07 1.43018 1.1013e+06 -3.3289e+07 734.992 734.992 734.992 2132.5 2867.5 2132.5 2867.5 2132.5 2867.5 3.97052e+08 0.1
Loop time of 25.3796 on 1 procs for 200000 steps with 1000 atoms

unfix 3

fix 4 all nvt temp 370000 300 100.0

run 100000
Generated 0 of 1 mixed pair_coeff terms from geometric mixing rule
Step          Temp          Press          PotEng        Density         KinEng         TotEng           Lx             Ly             Lz            Xlo            Xhi            Ylo            Yhi            Zlo            Zhi           Volume           Dt            Time           CPU           T/CPU          S/CPU         CPULeft
29705000   361276.67      572.90901     -34296994       1.4301798      1075820.2     -33221174       734.99193      734.99193      734.99193      2132.504       2867.496       2132.504       2867.496       2132.504       2867.496       3.9705229e+08  0.1            9135000        0              0              0              0
Averages over the last 251 of 501 rows, steps 29755000 to 29805000:
Temp Press PotEng Density KinEng TotEng Lx Ly Lz Xlo Xhi Ylo Yhi Zlo Zhi Volume Dt
96164.8 -345.138 -3.45839e+07 1.43018 286362 -3.42976e+07 734.992 734.992 734.992 2132.5 2867.5 2132.5 2867.5 2132.5 2867.5 3.97052e+08 0.1
Loop time of 12.5248 on 1 procs for 100000 steps with 1000 atoms

unfix 4

fix 5 all npt temp 300 300 $(100.0*dt) iso 1.0 1.0 $(1000.0*dt)
fix 5 all npt temp 300 300 10 iso 1.0 1.0 $(1000.0*dt)
fix 5 all npt temp 300 300 10 iso 1.0 1.0 100

run 300000
Generated 0 of 1 mixed pair_coeff terms from geometric mixing rule
Step          Temp          Press          PotEng        Density         KinEng         TotEng           Lx             Ly             Lz            Xlo            Xhi            Ylo            Yhi            Zlo            Zhi           Volume           Dt            Time           CPU           T/CPU          S/CPU         CPULeft
29805000   5049.157      -668.09635     -34726082       1.4301798      15035.527     -34711046       734.99193      734.99193      734.99193      2132.504       2867.496       2132.504       2867.496       2132.504       2867.496       3.9705229e+08  0.1            9145000        0              0              0              0
Averages over the last 751 of 1501 rows, steps 29955000 to 30105000:
Temp Press PotEng Density KinEng TotEng Lx Ly Lz Xlo Xhi Ylo Yhi Zlo Zhi Volume Dt
308.63 1.02262 -3.51946e+07 1.47298 919.049 -3.51937e+07 727.804 727.804 727.804 2136.1 2863.9 2136.1 2863.9 2136.1 2863.9 3.85517e+08 0.1
Loop time of 44.5674 on 1 procs for 300000 steps with 1000 atoms

# run_style
run_style verlet

# write restart
write_restart ./pgnpmf/400600/equpmf43.res
System init for write_restart ...
Generated 0 of 1 mixed pair_coeff terms from geometric mixing rule
