LAMMPS (23 Jun 2022 - Update 1)
# Read restart
read_restart ./pgnpmf/400600/equpmf24.res
Reading restart file ...
  restart file = 23 Jun 2022, LAMMPS = 23 Jun 2022
  restoring atom style atomic from restart
  orthogonal box = (1987.5419 1987.5419 1987.5419) to (3012.4581 3012.4581 3012.4581)
  restoring pair style table from restart
  1000 atoms
  read_restart CPU = 0.006 seconds

# Settings

pair_style table spline 9941

pair_coeff 1 1 ./pgnpmf/N20.txt DE_GNP 75.6
pair_coeff 2 2 ./pgnpmf/N100.txt DE_GNP 115.92
pair_coeff 1 2 ./pgnpmf/mixed_potential.txt DE_GNP 95.66

#Neigh_list Calc Frequency

neigh_modify delay 0 every 1 check yes

# Saving Frequency (50 frames)

variable ts_save equal 5000

# Dump
#dump_modify 1 first no sort id
#dump 2 all cfg 50000 ./equilibration/trajectory/ovito/dumpgen.tens_*.cfg mass type xs ys zs fx fy fz

# thermo_style
thermo_style custom step temp press pe density ke etotal lx ly lz xlo xhi ylo yhi zlo zhi vol dt time cpu tpcpu spcpu cpuremain

# run info
timestep 0.1
thermo 200

# fix

fix 1 all momentum 1000 linear 1 1 1 angular
variable T equal 300
fix 2 all nvt temp 300 370000 100.0

run 100000
Generated 0 of 1 mixed pair_coeff terms from geometric mixing rule
Unused restart file global fix info:
  fix style: npt, fix ID: 5
  update every 1 steps, delay 0 steps, check yes
Step          Temp          Press          PotEng        Density         KinEng         TotEng           Lx             Ly             Lz            Xlo            Xhi            Ylo            Yhi            Zlo            Zhi           Volume           Dt            Time           CPU           T/CPU          S/CPU         CPULeft
16805000   309.68163     -0.40170813    -28716541       0.52744024     922.17901     -28715619       1024.9162      1024.9162      1024.9162      1987.5419      3012.4581      1987.5419      3012.4581      1987.5419      3012.4581      1.0766265e+09  0.1            7845000        0              0              0              0
Averages over the last 251 of 501 rows, steps 16855000 to 16905000:
Temp Press PotEng Density KinEng TotEng Lx Ly Lz Xlo Xhi Ylo Yhi Zlo Zhi Volume Dt
276818 18.9668 -2.88047e+07 0.52744 824317 -2.79804e+07 1024.92 1024.92 1024.92 1987.54 3012.46 1987.54 3012.46 1987.54 3012.46 1.07663e+09 0.1
Loop time of 10.1451 on 1 procs for 100000 steps with 1000 atoms

unfix 2

fix 3 all nvt temp 370000 370000 $(100.0*dt) #iso 1.0 1.0 $(1000.0*dt)
fix 3 all nvt temp 370000 370000 10

run 200000
Generated 0 of 1 mixed pair_coeff terms from geometric mixing rule
Step          Temp          Press          PotEng        Density         KinEng         TotEng           Lx             Ly             Lz            Xlo            Xhi            Ylo            Yhi            Zlo            Zhi           Volume           Dt            Time           CPU           T/CPU          S/CPU         CPULeft
16905000   374272.93      147.1609      -28831494       0.52744024     1114520.9     -27716973       1024.9162      1024.9162      1024.9162      1987.5419      3012.4581      1987.5419      3012.4581      1987.5419      3012.4581      1.0766265e+09  0.1            7855000        0              0              0              0
Averages over the last 501 of 1001 rows, steps 17005000 to 17105000:
Temp Press PotEng Density KinEng TotEng Lx Ly Lz Xlo Xhi Ylo Yhi Zlo Zhi Volume Dt
369819 97.017 -2.82105e+07 0.52744 1.10126e+06 -2.71092e+07 1024.92 1024.92 1024.92 1987.54 3012.46 1987.54 3012.46 1987.54 3012.46 1.07663e+09 0.1
Loop time of 23.2435 on 1 procs for 200000 steps with 1000 atoms

unfix 3

fix 4 all nvt temp 370000 300 100.0

run 100000
Generated 0 of 1 mixed pair_coeff terms from geometric mixing rule
Step          Temp          Press          PotEng        Density         KinEng         TotEng           Lx             Ly             Lz            Xlo            Xhi            Ylo            Yhi            Zlo            Zhi           Volume           Dt            Time           CPU           T/CPU          S/CPU         CPULeft
17105000   364630.02     -9.1783166     -28012417       0.52744024     1085805.9     -26926611       1024.9162      1024.9162      1024.9162      1987.5419      3012.4581      1987.5419      3012.4581      1987.5419      3012.4581      1.0766265e+09  0.1            7875000        0              0              0              0
Averages over the last 251 of 501 rows, steps 17155000 to 17205000:
Temp Press PotEng Density KinEng TotEng Lx Ly Lz Xlo Xhi Ylo Yhi Zlo Zhi Volume Dt
94863 -238.1 -2.78019e+07 0.52744 282486 -2.75194e+07 1024.92 1024.92 1024.92 1987.54 3012.46 1987.54 3012.46 1987.54 3012.46 1.07663e+09 0.1
Loop time of 12.8568 on 1 procs for 100000 steps with 1000 atoms

unfix 4

fix 5 all npt temp 300 300 $(100.0*dt) iso 1.0 1.0 $(1000.0*dt)
fix 5 all npt temp 300 300 10 iso 1.0 1.0 $(1000.0*dt)
fix 5 all npt temp 300 300 10 iso 1.0 1.0 100

run 300000
Generated 0 of 1 mixed pair_coeff terms from geometric mixing rule
Step          Temp          Press          PotEng        Density         KinEng         TotEng           Lx             Ly             Lz            Xlo            Xhi            Ylo            Yhi            Zlo            Zhi           Volume           Dt            Time           CPU           T/CPU          S/CPU         CPULeft
17205000   4960.0397     -316.95684     -27903276       0.52744024     14770.151     -27888505       1024.9162      1024.9162      1024.9162      1987.5419      3012.4581      1987.5419      3012.4581      1987.5419      3012.4581      1.0766265e+09  0.1            7885000        0              0              0              0
Averages over the last 751 of 1501 rows, steps 17355000 to 17505000:
Temp Press PotEng Density KinEng TotEng Lx Ly Lz Xlo Xhi Ylo Yhi Zlo Zhi Volume Dt
312.104 1.04457 -2.86778e+07 0.558523 929.392 -2.86769e+07 1005.54 1005.54 1005.54 1997.23 3002.77 1997.23 3002.77 1997.23 3002.77 1.01672e+09 0.1
Loop time of 46.0781 on 1 procs for 300000 steps with 1000 atoms

# run_style
run_style verlet

# write restart
write_restart ./pgnpmf/400600/equpmf25.res
System init for write_restart ...
Generated 0 of 1 mixed pair_coeff terms from geometric mixing rule
