LAMMPS (23 Jun 2022 - Update 1)
# Read restart
read_restart ./pgnpmf/400600/equpmf48.res
Reading restart file ...
  restart file = 23 Jun 2022, LAMMPS = 23 Jun 2022
  restoring atom style atomic from restart
  orthogonal box = (2148.7339 2148.7339 2148.7339) to (2851.2661 2851.2661 2851.2661)
  restoring pair style table from restart
  1000 atoms
  read_restart CPU = 0.003 seconds

# Settings

pair_style table spline 9941

pair_coeff 1 1 ./pgnpmf/N20.txt DE_GNP 75.6
pair_coeff 2 2 ./pgnpmf/N100.txt DE_GNP 115.92
pair_coeff 1 2 ./pgnpmf/mixed_potential.txt DE_GNP 95.66

#Neigh_list Calc Frequency

neigh_modify delay 0 every 1 check yes

# Saving Frequency (50 frames)

variable ts_save equal 5000

# Dump
#dump_modify 1 first no sort id
#dump 2 all cfg 50000 ./equilibration/trajectory/ovito/dumpgen.tens_*.cfg mass type xs ys zs fx fy fz

# thermo_style
thermo_style custom step temp press pe density ke etotal lx ly lz xlo xhi ylo yhi zlo zhi vol dt time cpu tpcpu spcpu cpuremain

# run info
timestep 0.1
thermo 200

# fix

fix 1 all momentum 1000 linear 1 1 1 angular
variable T equal 300
fix 2 all nvt temp 300 370000 100.0

run 100000
Generated 0 of 1 mixed pair_coeff terms from geometric mixing rule
Unused restart file global fix info:
  fix style: npt, fix ID: 5
  update every 1 steps, delay 0 steps, check yes
Step          Temp          Press          PotEng        Density         KinEng         TotEng           Lx             Ly             Lz            Xlo            Xhi            Ylo            Yhi            Zlo            Zhi           Volume           Dt            Time           CPU           T/CPU          S/CPU         CPULeft
33605000   305.78475     -3.4336469     -36598442       1.6377203      910.57477     -36597532       702.53215      702.53215      702.53215      2148.7339      2851.2661      2148.7339      2851.2661      2148.7339      2851.2661      3.4673575e+08  0.1            9525000        0              0              0              0
Averages over the last 251 of 501 rows, steps 33655000 to 33705000:
Temp Press PotEng Density KinEng TotEng Lx Ly Lz Xlo Xhi Ylo Yhi Zlo Zhi Volume Dt
276909 513.367 -3.65043e+07 1.63772 824587 -3.56797e+07 702.532 702.532 702.532 2148.73 2851.27 2148.73 2851.27 2148.73 2851.27 3.46736e+08 0.1
Loop time of 13.4387 on 1 procs for 100000 steps with 1000 atoms

unfix 2

fix 3 all nvt temp 370000 370000 $(100.0*dt) #iso 1.0 1.0 $(1000.0*dt)
fix 3 all nvt temp 370000 370000 10

run 200000
Generated 0 of 1 mixed pair_coeff terms from geometric mixing rule
Step          Temp          Press          PotEng        Density         KinEng         TotEng           Lx             Ly             Lz            Xlo            Xhi            Ylo            Yhi            Zlo            Zhi           Volume           Dt            Time           CPU           T/CPU          S/CPU         CPULeft
33705000   371233.67      989.28796     -36294683       1.6377203      1105470.5     -35189212       702.53215      702.53215      702.53215      2148.7339      2851.2661      2148.7339      2851.2661      2148.7339      2851.2661      3.4673575e+08  0.1            9535000        0              0              0              0
Averages over the last 501 of 1001 rows, steps 33805000 to 33905000:
Temp Press PotEng Density KinEng TotEng Lx Ly Lz Xlo Xhi Ylo Yhi Zlo Zhi Volume Dt
369686 1195.63 -3.60866e+07 1.63772 1.10086e+06 -3.49857e+07 702.532 702.532 702.532 2148.73 2851.27 2148.73 2851.27 2148.73 2851.27 3.46736e+08 0.1
Loop time of 27.3455 on 1 procs for 200000 steps with 1000 atoms

unfix 3

fix 4 all nvt temp 370000 300 100.0

run 100000
Generated 0 of 1 mixed pair_coeff terms from geometric mixing rule
Step          Temp          Press          PotEng        Density         KinEng         TotEng           Lx             Ly             Lz            Xlo            Xhi            Ylo            Yhi            Zlo            Zhi           Volume           Dt            Time           CPU           T/CPU          S/CPU         CPULeft
33905000   366658.71      1134.1222     -36113168       1.6377203      1091847       -35021321       702.53215      702.53215      702.53215      2148.7339      2851.2661      2148.7339      2851.2661      2148.7339      2851.2661      3.4673575e+08  0.1            9555000        0              0              0              0
Averages over the last 251 of 501 rows, steps 33955000 to 34005000:
Temp Press PotEng Density KinEng TotEng Lx Ly Lz Xlo Xhi Ylo Yhi Zlo Zhi Volume Dt
96147.5 46.008 -3.63614e+07 1.63772 286311 -3.60751e+07 702.532 702.532 702.532 2148.73 2851.27 2148.73 2851.27 2148.73 2851.27 3.46736e+08 0.1
Loop time of 13.5595 on 1 procs for 100000 steps with 1000 atoms

unfix 4

fix 5 all npt temp 300 300 $(100.0*dt) iso 1.0 1.0 $(1000.0*dt)
fix 5 all npt temp 300 300 10 iso 1.0 1.0 $(1000.0*dt)
fix 5 all npt temp 300 300 10 iso 1.0 1.0 100

run 300000
Generated 0 of 1 mixed pair_coeff terms from geometric mixing rule
Step          Temp          Press          PotEng        Density         KinEng         TotEng           Lx             Ly             Lz            Xlo            Xhi            Ylo            Yhi            Zlo            Zhi           Volume           Dt            Time           CPU           T/CPU          S/CPU         CPULeft
34005000   5120.2957     -351.06845     -36547335       1.6377203      15247.366     -36532088       702.53215      702.53215      702.53215      2148.7339      2851.2661      2148.7339      2851.2661      2148.7339      2851.2661      3.4673575e+08  0.1            9565000        0              0              0              0
Averages over the last 751 of 1501 rows, steps 34155000 to 34305000:
Temp Press PotEng Density KinEng TotEng Lx Ly Lz Xlo Xhi Ylo Yhi Zlo Zhi Volume Dt
306.943 1.03156 -3.68865e+07 1.66283 914.023 -3.68855e+07 698.977 698.977 698.977 2150.51 2849.49 2150.51 2849.49 2150.51 2849.49 3.41499e+08 0.1
Loop time of 47.3458 on 1 procs for 300000 steps with 1000 atoms

# run_style
run_style verlet

# write restart
write_restart ./pgnpmf/400600/equpmf49.res
System init for write_restart ...
Generated 0 of 1 mixed pair_coeff terms from geometric mixing rule
