LAMMPS (23 Jun 2022 - Update 1)
# Read restart
read_restart ./pgnpmf/400600/equpmf37.res
Reading restart file ...
  restart file = 23 Jun 2022, LAMMPS = 23 Jun 2022
  restoring atom style atomic from restart
  orthogonal box = (2103.2878 2103.2878 2103.2878) to (2896.7122 2896.7122 2896.7122)
  restoring pair style table from restart
  1000 atoms
  read_restart CPU = 0.005 seconds

# Settings

pair_style table spline 9941

pair_coeff 1 1 ./pgnpmf/N20.txt DE_GNP 75.6
pair_coeff 2 2 ./pgnpmf/N100.txt DE_GNP 115.92
pair_coeff 1 2 ./pgnpmf/mixed_potential.txt DE_GNP 95.66

#Neigh_list Calc Frequency

neigh_modify delay 0 every 1 check yes

# Saving Frequency (50 frames)

variable ts_save equal 5000

# Dump
#dump_modify 1 first no sort id
#dump 2 all cfg 50000 ./equilibration/trajectory/ovito/dumpgen.tens_*.cfg mass type xs ys zs fx fy fz

# thermo_style
thermo_style custom step temp press pe density ke etotal lx ly lz xlo xhi ylo yhi zlo zhi vol dt time cpu tpcpu spcpu cpuremain

# run info
timestep 0.1
thermo 200

# fix

fix 1 all momentum 1000 linear 1 1 1 angular
variable T equal 300
fix 2 all nvt temp 300 370000 100.0

run 100000
Generated 0 of 1 mixed pair_coeff terms from geometric mixing rule
Unused restart file global fix info:
  fix style: npt, fix ID: 5
  update every 1 steps, delay 0 steps, check yes
Step          Temp          Press          PotEng        Density         KinEng         TotEng           Lx             Ly             Lz            Xlo            Xhi            Ylo            Yhi            Zlo            Zhi           Volume           Dt            Time           CPU           T/CPU          S/CPU         CPULeft
25905000   308.84778     -1.0153497     -32305621       1.1368987      919.69595     -32304702       793.42435      793.42435      793.42435      2103.2878      2896.7122      2103.2878      2896.7122      2103.2878      2896.7122      4.9947824e+08  0.1            8755000        0              0              0              0
Averages over the last 251 of 501 rows, steps 25955000 to 26005000:
Temp Press PotEng Density KinEng TotEng Lx Ly Lz Xlo Xhi Ylo Yhi Zlo Zhi Volume Dt
277605 101.283 -3.24421e+07 1.1369 826662 -3.16155e+07 793.424 793.424 793.424 2103.29 2896.71 2103.29 2896.71 2103.29 2896.71 4.99478e+08 0.1
Loop time of 12.8817 on 1 procs for 100000 steps with 1000 atoms

unfix 2

fix 3 all nvt temp 370000 370000 $(100.0*dt) #iso 1.0 1.0 $(1000.0*dt)
fix 3 all nvt temp 370000 370000 10

run 200000
Generated 0 of 1 mixed pair_coeff terms from geometric mixing rule
Step          Temp          Press          PotEng        Density         KinEng         TotEng           Lx             Ly             Lz            Xlo            Xhi            Ylo            Yhi            Zlo            Zhi           Volume           Dt            Time           CPU           T/CPU          S/CPU         CPULeft
26005000   361182.33      343.84308     -32336639       1.1368987      1075539.3     -31261099       793.42435      793.42435      793.42435      2103.2878      2896.7122      2103.2878      2896.7122      2103.2878      2896.7122      4.9947824e+08  0.1            8765000        0              0              0              0
Averages over the last 501 of 1001 rows, steps 26105000 to 26205000:
Temp Press PotEng Density KinEng TotEng Lx Ly Lz Xlo Xhi Ylo Yhi Zlo Zhi Volume Dt
370346 206.998 -3.20414e+07 1.1369 1.10283e+06 -3.09385e+07 793.424 793.424 793.424 2103.29 2896.71 2103.29 2896.71 2103.29 2896.71 4.99478e+08 0.1
Loop time of 26.0338 on 1 procs for 200000 steps with 1000 atoms

unfix 3

fix 4 all nvt temp 370000 300 100.0

run 100000
Generated 0 of 1 mixed pair_coeff terms from geometric mixing rule
Step          Temp          Press          PotEng        Density         KinEng         TotEng           Lx             Ly             Lz            Xlo            Xhi            Ylo            Yhi            Zlo            Zhi           Volume           Dt            Time           CPU           T/CPU          S/CPU         CPULeft
26205000   380572.04      106.51457     -31898596       1.1368987      1133278.5     -30765317       793.42435      793.42435      793.42435      2103.2878      2896.7122      2103.2878      2896.7122      2103.2878      2896.7122      4.9947824e+08  0.1            8785000        0              0              0              0
Averages over the last 251 of 501 rows, steps 26255000 to 26305000:
Temp Press PotEng Density KinEng TotEng Lx Ly Lz Xlo Xhi Ylo Yhi Zlo Zhi Volume Dt
95705.6 -467.786 -3.2092e+07 1.1369 284995 -3.1807e+07 793.424 793.424 793.424 2103.29 2896.71 2103.29 2896.71 2103.29 2896.71 4.99478e+08 0.1
Loop time of 12.9513 on 1 procs for 100000 steps with 1000 atoms

unfix 4

fix 5 all npt temp 300 300 $(100.0*dt) iso 1.0 1.0 $(1000.0*dt)
fix 5 all npt temp 300 300 10 iso 1.0 1.0 $(1000.0*dt)
fix 5 all npt temp 300 300 10 iso 1.0 1.0 100

run 300000
Generated 0 of 1 mixed pair_coeff terms from geometric mixing rule
Step          Temp          Press          PotEng        Density         KinEng         TotEng           Lx             Ly             Lz            Xlo            Xhi            Ylo            Yhi            Zlo            Zhi           Volume           Dt            Time           CPU           T/CPU          S/CPU         CPULeft
26305000   5004.1603     -678.34967     -32187171       1.1368987      14901.535     -32172269       793.42435      793.42435      793.42435      2103.2878      2896.7122      2103.2878      2896.7122      2103.2878      2896.7122      4.9947824e+08  0.1            8795000        0              0              0              0
Averages over the last 751 of 1501 rows, steps 26455000 to 26605000:
Temp Press PotEng Density KinEng TotEng Lx Ly Lz Xlo Xhi Ylo Yhi Zlo Zhi Volume Dt
310.656 1.01393 -3.28735e+07 1.1877 925.081 -3.28726e+07 781.947 781.947 781.947 2109.03 2890.97 2109.03 2890.97 2109.03 2890.97 4.78115e+08 0.1
Loop time of 46.7243 on 1 procs for 300000 steps with 1000 atoms

# run_style
run_style verlet

# write restart
write_restart ./pgnpmf/400600/equpmf38.res
System init for write_restart ...
Generated 0 of 1 mixed pair_coeff terms from geometric mixing rule
