LAMMPS (23 Jun 2022 - Update 1)
# Read restart
read_restart ./pgnpmf/400600/equpmf20.res
Reading restart file ...
  restart file = 23 Jun 2022, LAMMPS = 23 Jun 2022
  restoring atom style atomic from restart
  orthogonal box = (1960.1052 1960.1052 1960.1052) to (3039.8948 3039.8948 3039.8948)
  restoring pair style table from restart
  1000 atoms
  read_restart CPU = 0.009 seconds

# Settings

pair_style table spline 9941

pair_coeff 1 1 ./pgnpmf/N20.txt DE_GNP 75.6
pair_coeff 2 2 ./pgnpmf/N100.txt DE_GNP 115.92
pair_coeff 1 2 ./pgnpmf/mixed_potential.txt DE_GNP 95.66

#Neigh_list Calc Frequency

neigh_modify delay 0 every 1 check yes

# Saving Frequency (50 frames)

variable ts_save equal 5000

# Dump
#dump_modify 1 first no sort id
#dump 2 all cfg 50000 ./equilibration/trajectory/ovito/dumpgen.tens_*.cfg mass type xs ys zs fx fy fz

# thermo_style
thermo_style custom step temp press pe density ke etotal lx ly lz xlo xhi ylo yhi zlo zhi vol dt time cpu tpcpu spcpu cpuremain

# run info
timestep 0.5
thermo 200

# fix

fix 1 all momentum 1000 linear 1 1 1 angular
variable T equal 300
fix 2 all nvt temp 300 370000 100.0

run 100000
Generated 0 of 1 mixed pair_coeff terms from geometric mixing rule
Unused restart file global fix info:
  fix style: npt, fix ID: 5
  update every 1 steps, delay 0 steps, check yes
Step          Temp          Press          PotEng        Density         KinEng         TotEng           Lx             Ly             Lz            Xlo            Xhi            Ylo            Yhi            Zlo            Zhi           Volume           Dt            Time           CPU           T/CPU          S/CPU         CPULeft
14005000   306.63433      1.3067204     -28134188       0.45104605     913.10468     -28133275       1079.7896      1079.7896      1079.7896      1960.1052      3039.8948      1960.1052      3039.8948      1960.1052      3039.8948      1.258976e+09   0.5            7005000        0              0              0              0
Averages over the last 251 of 501 rows, steps 14055000 to 14105000:
Temp Press PotEng Density KinEng TotEng Lx Ly Lz Xlo Xhi Ylo Yhi Zlo Zhi Volume Dt
277521 37.409 -2.78098e+07 0.451046 826409 -2.69834e+07 1079.79 1079.79 1079.79 1960.11 3039.89 1960.11 3039.89 1960.11 3039.89 1.25898e+09 0.5
Loop time of 12.2652 on 1 procs for 100000 steps with 1000 atoms

unfix 2

fix 3 all nvt temp 370000 370000 $(100.0*dt) #iso 1.0 1.0 $(1000.0*dt)
fix 3 all nvt temp 370000 370000 50

run 200000
Generated 0 of 1 mixed pair_coeff terms from geometric mixing rule
Step          Temp          Press          PotEng        Density         KinEng         TotEng           Lx             Ly             Lz            Xlo            Xhi            Ylo            Yhi            Zlo            Zhi           Volume           Dt            Time           CPU           T/CPU          S/CPU         CPULeft
14105000   367710.18      8.5862188     -27333183       0.45104605     1094978.1     -26238205       1079.7896      1079.7896      1079.7896      1960.1052      3039.8948      1960.1052      3039.8948      1960.1052      3039.8948      1.258976e+09   0.5            7055000        0              0              0              0
Averages over the last 501 of 1001 rows, steps 14205000 to 14305000:
Temp Press PotEng Density KinEng TotEng Lx Ly Lz Xlo Xhi Ylo Yhi Zlo Zhi Volume Dt
369964 14.5245 -2.68915e+07 0.451046 1.10169e+06 -2.57898e+07 1079.79 1079.79 1079.79 1960.11 3039.89 1960.11 3039.89 1960.11 3039.89 1.25898e+09 0.5
Loop time of 24.1896 on 1 procs for 200000 steps with 1000 atoms

unfix 3

fix 4 all nvt temp 370000 300 100.0

run 100000
Generated 0 of 1 mixed pair_coeff terms from geometric mixing rule
Step          Temp          Press          PotEng        Density         KinEng         TotEng           Lx             Ly             Lz            Xlo            Xhi            Ylo            Yhi            Zlo            Zhi           Volume           Dt            Time           CPU           T/CPU          S/CPU         CPULeft
14305000   364452.51      11.972441     -26847809       0.45104605     1085277.4     -25762531       1079.7896      1079.7896      1079.7896      1960.1052      3039.8948      1960.1052      3039.8948      1960.1052      3039.8948      1.258976e+09   0.5            7155000        0              0              0              0
Averages over the last 251 of 501 rows, steps 14355000 to 14405000:
Temp Press PotEng Density KinEng TotEng Lx Ly Lz Xlo Xhi Ylo Yhi Zlo Zhi Volume Dt
93135.4 -63.7381 -2.79879e+07 0.451046 277341 -2.77105e+07 1079.79 1079.79 1079.79 1960.11 3039.89 1960.11 3039.89 1960.11 3039.89 1.25898e+09 0.5
Loop time of 11.9889 on 1 procs for 100000 steps with 1000 atoms

unfix 4

fix 5 all npt temp 300 300 $(100.0*dt) iso 1.0 1.0 $(1000.0*dt)
fix 5 all npt temp 300 300 50 iso 1.0 1.0 $(1000.0*dt)
fix 5 all npt temp 300 300 50 iso 1.0 1.0 500

run 300000
Generated 0 of 1 mixed pair_coeff terms from geometric mixing rule
Step          Temp          Press          PotEng        Density         KinEng         TotEng           Lx             Ly             Lz            Xlo            Xhi            Ylo            Yhi            Zlo            Zhi           Volume           Dt            Time           CPU           T/CPU          S/CPU         CPULeft
14405000   1365.1184     -84.229315     -28428779       0.45104605     4065.0896     -28424714       1079.7896      1079.7896      1079.7896      1960.1052      3039.8948      1960.1052      3039.8948      1960.1052      3039.8948      1.258976e+09   0.5            7205000        0              0              0              0
Averages over the last 751 of 1501 rows, steps 14555000 to 14705000:
Temp Press PotEng Density KinEng TotEng Lx Ly Lz Xlo Xhi Ylo Yhi Zlo Zhi Volume Dt
308.954 1.01577 -2.88139e+07 0.463805 920.011 -2.8813e+07 1069.8 1069.8 1069.8 1965.1 3034.9 1965.1 3034.9 1965.1 3034.9 1.22435e+09 0.5
Loop time of 44.0741 on 1 procs for 300000 steps with 1000 atoms

# run_style
run_style verlet

# write restart
write_restart ./pgnpmf/400600/equpmf21.res
System init for write_restart ...
Generated 0 of 1 mixed pair_coeff terms from geometric mixing rule
