LAMMPS (23 Jun 2022 - Update 1)
# Read restart
read_restart ./pgnpmf/6040/equpmf47.res
Reading restart file ...
  restart file = 23 Jun 2022, LAMMPS = 23 Jun 2022
  restoring atom style atomic from restart
  orthogonal box = (1686.4017 1686.4017 1686.4017) to (2313.5983 2313.5983 2313.5983)
  restoring pair style table from restart
  1000 atoms
  read_restart CPU = 0.008 seconds

# Settings

pair_style table spline 9941

pair_coeff 1 1 ./pgnpmf/N20.txt DE_GNP 75.6
pair_coeff 2 2 ./pgnpmf/N100.txt DE_GNP 115.92
pair_coeff 1 2 ./pgnpmf/mixed_potential.txt DE_GNP 95.66

#Neigh_list Calc Frequency

neigh_modify delay 0 every 1 check yes

# Saving Frequency (50 frames)

variable ts_save equal 5000

# Dump
#dump_modify 1 first no sort id
dump 2 all cfg 50000 ./pgnpmf/6040/equilibration/trajectory/dumpgen.tens_*.cfg mass type xs ys zs fx fy fz
dump_modify 2 element N20 N100

# thermo_style
thermo_style custom step temp press pe density ke etotal lx ly lz xlo xhi ylo yhi zlo zhi vol dt time cpu tpcpu spcpu cpuremain

# run info
timestep 0.1
thermo 10000

# fix

fix 1 all momentum 1000 linear 1 1 1 angular
variable T equal 300
fix 2 all nvt temp 300 370000 100.0

run 200000
Generated 0 of 1 mixed pair_coeff terms from geometric mixing rule
Unused restart file global fix info:
  fix style: npt, fix ID: 5
  update every 1 steps, delay 0 steps, check yes
Step          Temp          Press          PotEng        Density         KinEng         TotEng           Lx             Ly             Lz            Xlo            Xhi            Ylo            Yhi            Zlo            Zhi           Volume           Dt            Time           CPU           T/CPU          S/CPU         CPULeft
58800000   300.28797      6.0311489     -27354340       2.032102       894.20629     -27353446       627.19669      627.19669      627.19669      1686.4017      2313.5983      1686.4017      2313.5983      1686.4017      2313.5983      2.4672393e+08  0.1            8040000        0              0              0              0
Averages over the last 11 of 21 rows, steps 58900000 to 59000000:
Temp Press PotEng Density KinEng TotEng Lx Ly Lz Xlo Xhi Ylo Yhi Zlo Zhi Volume Dt
276830 2079.48 -2.67724e+07 2.0321 824351 -2.5948e+07 627.197 627.197 627.197 1686.4 2313.6 1686.4 2313.6 1686.4 2313.6 2.46724e+08 0.1
Loop time of 14.1885 on 4 procs for 200000 steps with 1000 atoms

unfix 2

fix 3 all nvt temp 370000 370000 $(100.0*dt) #iso 1.0 1.0 $(1000.0*dt)
fix 3 all nvt temp 370000 370000 10

run 500000
Generated 0 of 1 mixed pair_coeff terms from geometric mixing rule
Step          Temp          Press          PotEng        Density         KinEng         TotEng           Lx             Ly             Lz            Xlo            Xhi            Ylo            Yhi            Zlo            Zhi           Volume           Dt            Time           CPU           T/CPU          S/CPU         CPULeft
59000000   368319.46      3108.6659     -26417813       2.032102       1096792.4     -25321020       627.19669      627.19669      627.19669      1686.4017      2313.5983      1686.4017      2313.5983      1686.4017      2313.5983      2.4672393e+08  0.1            8060000        0              0              0              0
Averages over the last 26 of 51 rows, steps 59250000 to 59500000:
Temp Press PotEng Density KinEng TotEng Lx Ly Lz Xlo Xhi Ylo Yhi Zlo Zhi Volume Dt
370169 2973.29 -2.62976e+07 2.0321 1.1023e+06 -2.51953e+07 627.197 627.197 627.197 1686.4 2313.6 1686.4 2313.6 1686.4 2313.6 2.46724e+08 0.1
Loop time of 35.7239 on 4 procs for 500000 steps with 1000 atoms

unfix 3

fix 4 all nvt temp 370000 300 $(100.0*dt)
fix 4 all nvt temp 370000 300 10

run 200000
Generated 0 of 1 mixed pair_coeff terms from geometric mixing rule
Step          Temp          Press          PotEng        Density         KinEng         TotEng           Lx             Ly             Lz            Xlo            Xhi            Ylo            Yhi            Zlo            Zhi           Volume           Dt            Time           CPU           T/CPU          S/CPU         CPULeft
59500000   365105.62      2823.7615     -26288327       2.032102       1087222.2     -25201105       627.19669      627.19669      627.19669      1686.4017      2313.5983      1686.4017      2313.5983      1686.4017      2313.5983      2.4672393e+08  0.1            8110000        0              0              0              0
Averages over the last 11 of 21 rows, steps 59600000 to 59700000:
Temp Press PotEng Density KinEng TotEng Lx Ly Lz Xlo Xhi Ylo Yhi Zlo Zhi Volume Dt
93073 933.424 -2.69492e+07 2.0321 277155 -2.6672e+07 627.197 627.197 627.197 1686.4 2313.6 1686.4 2313.6 1686.4 2313.6 2.46724e+08 0.1
Loop time of 14.1998 on 4 procs for 200000 steps with 1000 atoms

unfix 4

fix 5 all npt temp 300 300 $(100.0*dt) iso 1.0 1.0 $(1000.0*dt)
fix 5 all npt temp 300 300 10 iso 1.0 1.0 $(1000.0*dt)
fix 5 all npt temp 300 300 10 iso 1.0 1.0 100

run 300000
Generated 0 of 1 mixed pair_coeff terms from geometric mixing rule
Step          Temp          Press          PotEng        Density         KinEng         TotEng           Lx             Ly             Lz            Xlo            Xhi            Ylo            Yhi            Zlo            Zhi           Volume           Dt            Time           CPU           T/CPU          S/CPU         CPULeft
59700000   524.00815      208.54522     -27154782       2.032102       1560.4068     -27153221       627.19669      627.19669      627.19669      1686.4017      2313.5983      1686.4017      2313.5983      1686.4017      2313.5983      2.4672393e+08  0.1            8130000        0              0              0              0
Averages over the last 16 of 31 rows, steps 59850000 to 60000000:
Temp Press PotEng Density KinEng TotEng Lx Ly Lz Xlo Xhi Ylo Yhi Zlo Zhi Volume Dt
301.12 2.17316 -2.72605e+07 2.03205 896.685 -2.72596e+07 627.202 627.202 627.202 1686.4 2313.6 1686.4 2313.6 1686.4 2313.6 2.4673e+08 0.1
Loop time of 24.9235 on 4 procs for 300000 steps with 1000 atoms

# run_style
run_style verlet

# write restart
write_restart ./pgnpmf/6040/equpmf48.res
System init for write_restart ...
Generated 0 of 1 mixed pair_coeff terms from geometric mixing rule
