LAMMPS (23 Jun 2022 - Update 1)
# Read restart
read_restart ./pgnpmf/6040/equpmf52.res
Reading restart file ...
  restart file = 23 Jun 2022, LAMMPS = 23 Jun 2022
  restoring atom style atomic from restart
  orthogonal box = (1686.4608 1686.4608 1686.4608) to (2313.5392 2313.5392 2313.5392)
  restoring pair style table from restart
  1000 atoms
  read_restart CPU = 0.008 seconds

# Settings

pair_style table spline 9941

pair_coeff 1 1 ./pgnpmf/N20.txt DE_GNP 75.6
pair_coeff 2 2 ./pgnpmf/N100.txt DE_GNP 115.92
pair_coeff 1 2 ./pgnpmf/mixed_potential.txt DE_GNP 95.66

#Neigh_list Calc Frequency

neigh_modify delay 0 every 1 check yes

# Saving Frequency (50 frames)

variable ts_save equal 5000

# Dump
#dump_modify 1 first no sort id
dump 2 all cfg 50000 ./pgnpmf/6040/equilibration/trajectory/dumpgen.tens_*.cfg mass type xs ys zs fx fy fz
dump_modify 2 element N20 N100

# thermo_style
thermo_style custom step temp press pe density ke etotal lx ly lz xlo xhi ylo yhi zlo zhi vol dt time cpu tpcpu spcpu cpuremain

# run info
timestep 0.1
thermo 10000

# fix

fix 1 all momentum 1000 linear 1 1 1 angular
variable T equal 300
fix 2 all nvt temp 300 370000 100.0

run 200000
Generated 0 of 1 mixed pair_coeff terms from geometric mixing rule
Unused restart file global fix info:
  fix style: npt, fix ID: 5
  update every 1 steps, delay 0 steps, check yes
Step          Temp          Press          PotEng        Density         KinEng         TotEng           Lx             Ly             Lz            Xlo            Xhi            Ylo            Yhi            Zlo            Zhi           Volume           Dt            Time           CPU           T/CPU          S/CPU         CPULeft
64800000   300.60316     -0.041069593   -27186317       2.0332515      895.14489     -27185422       627.07847      627.07847      627.07847      1686.4608      2313.5392      1686.4608      2313.5392      1686.4608      2313.5392      2.4658444e+08  0.1            8640000        0              0              0              0
Averages over the last 11 of 21 rows, steps 64900000 to 65000000:
Temp Press PotEng Density KinEng TotEng Lx Ly Lz Xlo Xhi Ylo Yhi Zlo Zhi Volume Dt
276110 2154.97 -2.65883e+07 2.03325 822209 -2.57661e+07 627.078 627.078 627.078 1686.46 2313.54 1686.46 2313.54 1686.46 2313.54 2.46584e+08 0.1
Loop time of 14.4715 on 4 procs for 200000 steps with 1000 atoms

unfix 2

fix 3 all nvt temp 370000 370000 $(100.0*dt) #iso 1.0 1.0 $(1000.0*dt)
fix 3 all nvt temp 370000 370000 10

run 500000
Generated 0 of 1 mixed pair_coeff terms from geometric mixing rule
Step          Temp          Press          PotEng        Density         KinEng         TotEng           Lx             Ly             Lz            Xlo            Xhi            Ylo            Yhi            Zlo            Zhi           Volume           Dt            Time           CPU           T/CPU          S/CPU         CPULeft
65000000   371100.12      3073.3606     -26306310       2.0332515      1105072.8     -25201237       627.07847      627.07847      627.07847      1686.4608      2313.5392      1686.4608      2313.5392      1686.4608      2313.5392      2.4658444e+08  0.1            8660000        0              0              0              0
Averages over the last 26 of 51 rows, steps 65250000 to 65500000:
Temp Press PotEng Density KinEng TotEng Lx Ly Lz Xlo Xhi Ylo Yhi Zlo Zhi Volume Dt
372784 2982.65 -2.61918e+07 2.03325 1.11009e+06 -2.50817e+07 627.078 627.078 627.078 1686.46 2313.54 1686.46 2313.54 1686.46 2313.54 2.46584e+08 0.1
Loop time of 35.9937 on 4 procs for 500000 steps with 1000 atoms

unfix 3

fix 4 all nvt temp 370000 300 $(100.0*dt)
fix 4 all nvt temp 370000 300 10

run 200000
Generated 0 of 1 mixed pair_coeff terms from geometric mixing rule
Step          Temp          Press          PotEng        Density         KinEng         TotEng           Lx             Ly             Lz            Xlo            Xhi            Ylo            Yhi            Zlo            Zhi           Volume           Dt            Time           CPU           T/CPU          S/CPU         CPULeft
65500000   375744.67      2807.0987     -26303771       2.0332515      1118903.5     -25184868       627.07847      627.07847      627.07847      1686.4608      2313.5392      1686.4608      2313.5392      1686.4608      2313.5392      2.4658444e+08  0.1            8710000        0              0              0              0
Averages over the last 11 of 21 rows, steps 65600000 to 65700000:
Temp Press PotEng Density KinEng TotEng Lx Ly Lz Xlo Xhi Ylo Yhi Zlo Zhi Volume Dt
92394.8 872.539 -2.68981e+07 2.03325 275136 -2.66229e+07 627.078 627.078 627.078 1686.46 2313.54 1686.46 2313.54 1686.46 2313.54 2.46584e+08 0.1
Loop time of 14.7768 on 4 procs for 200000 steps with 1000 atoms

unfix 4

fix 5 all npt temp 300 300 $(100.0*dt) iso 1.0 1.0 $(1000.0*dt)
fix 5 all npt temp 300 300 10 iso 1.0 1.0 $(1000.0*dt)
fix 5 all npt temp 300 300 10 iso 1.0 1.0 100

run 300000
Generated 0 of 1 mixed pair_coeff terms from geometric mixing rule
Step          Temp          Press          PotEng        Density         KinEng         TotEng           Lx             Ly             Lz            Xlo            Xhi            Ylo            Yhi            Zlo            Zhi           Volume           Dt            Time           CPU           T/CPU          S/CPU         CPULeft
65700000   524.7521       213.01363     -27088338       2.0332515      1562.6222     -27086775       627.07847      627.07847      627.07847      1686.4608      2313.5392      1686.4608      2313.5392      1686.4608      2313.5392      2.4658444e+08  0.1            8730000        0              0              0              0
Averages over the last 16 of 31 rows, steps 65850000 to 66000000:
Temp Press PotEng Density KinEng TotEng Lx Ly Lz Xlo Xhi Ylo Yhi Zlo Zhi Volume Dt
301.879 2.30125 -2.71473e+07 2.03402 898.943 -2.71464e+07 627 627 627 1686.5 2313.5 1686.5 2313.5 1686.5 2313.5 2.46492e+08 0.1
Loop time of 25.8057 on 4 procs for 300000 steps with 1000 atoms

# run_style
run_style verlet

# write restart
write_restart ./pgnpmf/6040/equpmf53.res
System init for write_restart ...
Generated 0 of 1 mixed pair_coeff terms from geometric mixing rule
