LAMMPS (23 Jun 2022 - Update 1)
# Read restart
read_restart ./pgnpmf/6040/equpmf63.res
Reading restart file ...
  restart file = 23 Jun 2022, LAMMPS = 23 Jun 2022
  restoring atom style atomic from restart
  orthogonal box = (1686.7198 1686.7198 1686.7198) to (2313.2802 2313.2802 2313.2802)
  restoring pair style table from restart
  1000 atoms
  read_restart CPU = 0.006 seconds

# Settings

pair_style table spline 9941

pair_coeff 1 1 ./pgnpmf/N20.txt DE_GNP 75.6
pair_coeff 2 2 ./pgnpmf/N100.txt DE_GNP 115.92
pair_coeff 1 2 ./pgnpmf/mixed_potential.txt DE_GNP 95.66

#Neigh_list Calc Frequency

neigh_modify delay 0 every 1 check yes

# Saving Frequency (50 frames)

variable ts_save equal 5000

# Dump
#dump_modify 1 first no sort id
dump 2 all cfg 50000 ./pgnpmf/6040/equilibration/trajectory/dumpgen.tens_*.cfg mass type xs ys zs fx fy fz
dump_modify 2 element N20 N100

# thermo_style
thermo_style custom step temp press pe density ke etotal lx ly lz xlo xhi ylo yhi zlo zhi vol dt time cpu tpcpu spcpu cpuremain

# run info
timestep 0.1
thermo 10000

# fix

fix 1 all momentum 1000 linear 1 1 1 angular
variable T equal 300
fix 2 all nvt temp 300 370000 100.0

run 200000
Generated 0 of 1 mixed pair_coeff terms from geometric mixing rule
Unused restart file global fix info:
  fix style: npt, fix ID: 5
  update every 1 steps, delay 0 steps, check yes
Step          Temp          Press          PotEng        Density         KinEng         TotEng           Lx             Ly             Lz            Xlo            Xhi            Ylo            Yhi            Zlo            Zhi           Volume           Dt            Time           CPU           T/CPU          S/CPU         CPULeft
78000000   294.71115      4.8280294     -27276635       2.0383         877.59949     -27275757       626.56032      626.56032      626.56032      1686.7198      2313.2802      1686.7198      2313.2802      1686.7198      2313.2802      2.4597369e+08  0.1            9960000        0              0              0              0
Averages over the last 11 of 21 rows, steps 78100000 to 78200000:
Temp Press PotEng Density KinEng TotEng Lx Ly Lz Xlo Xhi Ylo Yhi Zlo Zhi Volume Dt
278034 2074.66 -2.67418e+07 2.0383 827937 -2.59139e+07 626.56 626.56 626.56 1686.72 2313.28 1686.72 2313.28 1686.72 2313.28 2.45974e+08 0.1
Loop time of 13.7184 on 4 procs for 200000 steps with 1000 atoms

unfix 2

fix 3 all nvt temp 370000 370000 $(100.0*dt) #iso 1.0 1.0 $(1000.0*dt)
fix 3 all nvt temp 370000 370000 10

run 500000
Generated 0 of 1 mixed pair_coeff terms from geometric mixing rule
Step          Temp          Press          PotEng        Density         KinEng         TotEng           Lx             Ly             Lz            Xlo            Xhi            Ylo            Yhi            Zlo            Zhi           Volume           Dt            Time           CPU           T/CPU          S/CPU         CPULeft
78200000   380618.05      2975.9559     -26441883       2.0383         1133415.5     -25308468       626.56032      626.56032      626.56032      1686.7198      2313.2802      1686.7198      2313.2802      1686.7198      2313.2802      2.4597369e+08  0.1            9980000        0              0              0              0
Averages over the last 26 of 51 rows, steps 78450000 to 78700000:
Temp Press PotEng Density KinEng TotEng Lx Ly Lz Xlo Xhi Ylo Yhi Zlo Zhi Volume Dt
366574 2967.87 -2.641e+07 2.0383 1.09159e+06 -2.53184e+07 626.56 626.56 626.56 1686.72 2313.28 1686.72 2313.28 1686.72 2313.28 2.45974e+08 0.1
Loop time of 34.4773 on 4 procs for 500000 steps with 1000 atoms

unfix 3

fix 4 all nvt temp 370000 300 $(100.0*dt)
fix 4 all nvt temp 370000 300 10

run 200000
Generated 0 of 1 mixed pair_coeff terms from geometric mixing rule
Step          Temp          Press          PotEng        Density         KinEng         TotEng           Lx             Ly             Lz            Xlo            Xhi            Ylo            Yhi            Zlo            Zhi           Volume           Dt            Time           CPU           T/CPU          S/CPU         CPULeft
78700000   355181.76      2843.8341     -26464367       2.0383         1057670.6     -25406697       626.56032      626.56032      626.56032      1686.7198      2313.2802      1686.7198      2313.2802      1686.7198      2313.2802      2.4597369e+08  0.1            10030000       0              0              0              0
Averages over the last 11 of 21 rows, steps 78800000 to 78900000:
Temp Press PotEng Density KinEng TotEng Lx Ly Lz Xlo Xhi Ylo Yhi Zlo Zhi Volume Dt
92004.6 931.973 -2.70095e+07 2.0383 273974 -2.67355e+07 626.56 626.56 626.56 1686.72 2313.28 1686.72 2313.28 1686.72 2313.28 2.45974e+08 0.1
Loop time of 14.2866 on 4 procs for 200000 steps with 1000 atoms

unfix 4

fix 5 all npt temp 300 300 $(100.0*dt) iso 1.0 1.0 $(1000.0*dt)
fix 5 all npt temp 300 300 10 iso 1.0 1.0 $(1000.0*dt)
fix 5 all npt temp 300 300 10 iso 1.0 1.0 100

run 300000
Generated 0 of 1 mixed pair_coeff terms from geometric mixing rule
Step          Temp          Press          PotEng        Density         KinEng         TotEng           Lx             Ly             Lz            Xlo            Xhi            Ylo            Yhi            Zlo            Zhi           Volume           Dt            Time           CPU           T/CPU          S/CPU         CPULeft
78900000   523.96785      217.72649     -27257863       2.0383         1560.2868     -27256303       626.56032      626.56032      626.56032      1686.7198      2313.2802      1686.7198      2313.2802      1686.7198      2313.2802      2.4597369e+08  0.1            10050000       0              0              0              0
Averages over the last 16 of 31 rows, steps 79050000 to 79200000:
Temp Press PotEng Density KinEng TotEng Lx Ly Lz Xlo Xhi Ylo Yhi Zlo Zhi Volume Dt
303.416 2.14959 -2.73096e+07 2.03849 903.522 -2.73087e+07 626.541 626.541 626.541 1686.73 2313.27 1686.73 2313.27 1686.73 2313.27 2.45951e+08 0.1
Loop time of 24.5263 on 4 procs for 300000 steps with 1000 atoms

# run_style
run_style verlet

# write restart
write_restart ./pgnpmf/6040/equpmf64.res
System init for write_restart ...
Generated 0 of 1 mixed pair_coeff terms from geometric mixing rule
