LAMMPS (23 Jun 2022 - Update 1)
# Read restart
read_restart ./pgnpmf/6040/equpmf51.res
Reading restart file ...
  restart file = 23 Jun 2022, LAMMPS = 23 Jun 2022
  restoring atom style atomic from restart
  orthogonal box = (1686.3209 1686.3209 1686.3209) to (2313.6791 2313.6791 2313.6791)
  restoring pair style table from restart
  1000 atoms
  read_restart CPU = 0.008 seconds

# Settings

pair_style table spline 9941

pair_coeff 1 1 ./pgnpmf/N20.txt DE_GNP 75.6
pair_coeff 2 2 ./pgnpmf/N100.txt DE_GNP 115.92
pair_coeff 1 2 ./pgnpmf/mixed_potential.txt DE_GNP 95.66

#Neigh_list Calc Frequency

neigh_modify delay 0 every 1 check yes

# Saving Frequency (50 frames)

variable ts_save equal 5000

# Dump
#dump_modify 1 first no sort id
dump 2 all cfg 50000 ./pgnpmf/6040/equilibration/trajectory/dumpgen.tens_*.cfg mass type xs ys zs fx fy fz
dump_modify 2 element N20 N100

# thermo_style
thermo_style custom step temp press pe density ke etotal lx ly lz xlo xhi ylo yhi zlo zhi vol dt time cpu tpcpu spcpu cpuremain

# run info
timestep 0.1
thermo 10000

# fix

fix 1 all momentum 1000 linear 1 1 1 angular
variable T equal 300
fix 2 all nvt temp 300 370000 100.0

run 200000
Generated 0 of 1 mixed pair_coeff terms from geometric mixing rule
Unused restart file global fix info:
  fix style: npt, fix ID: 5
  update every 1 steps, delay 0 steps, check yes
Step          Temp          Press          PotEng        Density         KinEng         TotEng           Lx             Ly             Lz            Xlo            Xhi            Ylo            Yhi            Zlo            Zhi           Volume           Dt            Time           CPU           T/CPU          S/CPU         CPULeft
63600000   286.03243      2.5203918     -27167712       2.0305336      851.75573     -27166860       627.35813      627.35813      627.35813      1686.3209      2313.6791      1686.3209      2313.6791      1686.3209      2313.6791      2.469145e+08   0.1            8520000        0              0              0              0
Averages over the last 11 of 21 rows, steps 63700000 to 63800000:
Temp Press PotEng Density KinEng TotEng Lx Ly Lz Xlo Xhi Ylo Yhi Zlo Zhi Volume Dt
277973 2065.96 -2.65798e+07 2.03053 827755 -2.5752e+07 627.358 627.358 627.358 1686.32 2313.68 1686.32 2313.68 1686.32 2313.68 2.46914e+08 0.1
Loop time of 14.2045 on 4 procs for 200000 steps with 1000 atoms

unfix 2

fix 3 all nvt temp 370000 370000 $(100.0*dt) #iso 1.0 1.0 $(1000.0*dt)
fix 3 all nvt temp 370000 370000 10

run 500000
Generated 0 of 1 mixed pair_coeff terms from geometric mixing rule
Step          Temp          Press          PotEng        Density         KinEng         TotEng           Lx             Ly             Lz            Xlo            Xhi            Ylo            Yhi            Zlo            Zhi           Volume           Dt            Time           CPU           T/CPU          S/CPU         CPULeft
63800000   367280.16      2971.6676     -26325400       2.0305336      1093697.6     -25231703       627.35813      627.35813      627.35813      1686.3209      2313.6791      1686.3209      2313.6791      1686.3209      2313.6791      2.469145e+08   0.1            8540000        0              0              0              0
Averages over the last 26 of 51 rows, steps 64050000 to 64300000:
Temp Press PotEng Density KinEng TotEng Lx Ly Lz Xlo Xhi Ylo Yhi Zlo Zhi Volume Dt
367364 2918.14 -2.62513e+07 2.03053 1.09395e+06 -2.51573e+07 627.358 627.358 627.358 1686.32 2313.68 1686.32 2313.68 1686.32 2313.68 2.46914e+08 0.1
Loop time of 35.6333 on 4 procs for 500000 steps with 1000 atoms

unfix 3

fix 4 all nvt temp 370000 300 $(100.0*dt)
fix 4 all nvt temp 370000 300 10

run 200000
Generated 0 of 1 mixed pair_coeff terms from geometric mixing rule
Step          Temp          Press          PotEng        Density         KinEng         TotEng           Lx             Ly             Lz            Xlo            Xhi            Ylo            Yhi            Zlo            Zhi           Volume           Dt            Time           CPU           T/CPU          S/CPU         CPULeft
64300000   392633.11      2715.9854     -26299972       2.0305336      1169194.3     -25130777       627.35813      627.35813      627.35813      1686.3209      2313.6791      1686.3209      2313.6791      1686.3209      2313.6791      2.469145e+08   0.1            8590000        0              0              0              0
Averages over the last 11 of 21 rows, steps 64400000 to 64500000:
Temp Press PotEng Density KinEng TotEng Lx Ly Lz Xlo Xhi Ylo Yhi Zlo Zhi Volume Dt
92291.7 861.678 -2.68575e+07 2.03053 274829 -2.65827e+07 627.358 627.358 627.358 1686.32 2313.68 1686.32 2313.68 1686.32 2313.68 2.46914e+08 0.1
Loop time of 14.0541 on 4 procs for 200000 steps with 1000 atoms

unfix 4

fix 5 all npt temp 300 300 $(100.0*dt) iso 1.0 1.0 $(1000.0*dt)
fix 5 all npt temp 300 300 10 iso 1.0 1.0 $(1000.0*dt)
fix 5 all npt temp 300 300 10 iso 1.0 1.0 100

run 300000
Generated 0 of 1 mixed pair_coeff terms from geometric mixing rule
Step          Temp          Press          PotEng        Density         KinEng         TotEng           Lx             Ly             Lz            Xlo            Xhi            Ylo            Yhi            Zlo            Zhi           Volume           Dt            Time           CPU           T/CPU          S/CPU         CPULeft
64500000   523.37201      140.36623     -27129346       2.0305336      1558.5125     -27127787       627.35813      627.35813      627.35813      1686.3209      2313.6791      1686.3209      2313.6791      1686.3209      2313.6791      2.469145e+08   0.1            8610000        0              0              0              0
Averages over the last 16 of 31 rows, steps 64650000 to 64800000:
Temp Press PotEng Density KinEng TotEng Lx Ly Lz Xlo Xhi Ylo Yhi Zlo Zhi Volume Dt
301.835 -0.722269 -2.71621e+07 2.03232 898.812 -2.71612e+07 627.174 627.174 627.174 1686.41 2313.59 1686.41 2313.59 1686.41 2313.59 2.46698e+08 0.1
Loop time of 25.1273 on 4 procs for 300000 steps with 1000 atoms

# run_style
run_style verlet

# write restart
write_restart ./pgnpmf/6040/equpmf52.res
System init for write_restart ...
Generated 0 of 1 mixed pair_coeff terms from geometric mixing rule
