LAMMPS (23 Jun 2022 - Update 1)
# Read restart
read_restart ./pgnpmf/6040/equpmf41.res
Reading restart file ...
  restart file = 23 Jun 2022, LAMMPS = 23 Jun 2022
  restoring atom style atomic from restart
  orthogonal box = (1686.1362 1686.1362 1686.1362) to (2313.8638 2313.8638 2313.8638)
  restoring pair style table from restart
  1000 atoms
  read_restart CPU = 0.006 seconds

# Settings

pair_style table spline 9941

pair_coeff 1 1 ./pgnpmf/N20.txt DE_GNP 75.6
pair_coeff 2 2 ./pgnpmf/N100.txt DE_GNP 115.92
pair_coeff 1 2 ./pgnpmf/mixed_potential.txt DE_GNP 95.66

#Neigh_list Calc Frequency

neigh_modify delay 0 every 1 check yes

# Saving Frequency (50 frames)

variable ts_save equal 5000

# Dump
#dump_modify 1 first no sort id
dump 2 all cfg 50000 ./pgnpmf/6040/equilibration/trajectory/dumpgen.tens_*.cfg mass type xs ys zs fx fy fz
dump_modify 2 element N20 N100

# thermo_style
thermo_style custom step temp press pe density ke etotal lx ly lz xlo xhi ylo yhi zlo zhi vol dt time cpu tpcpu spcpu cpuremain

# run info
timestep 0.1
thermo 10000

# fix

fix 1 all momentum 1000 linear 1 1 1 angular
variable T equal 300
fix 2 all nvt temp 300 370000 100.0

run 200000
Generated 0 of 1 mixed pair_coeff terms from geometric mixing rule
Unused restart file global fix info:
  fix style: npt, fix ID: 5
  update every 1 steps, delay 0 steps, check yes
Step          Temp          Press          PotEng        Density         KinEng         TotEng           Lx             Ly             Lz            Xlo            Xhi            Ylo            Yhi            Zlo            Zhi           Volume           Dt            Time           CPU           T/CPU          S/CPU         CPULeft
51600000   312.4458       2.7206338     -27305832       2.0269497      930.41023     -27304902       627.72766      627.72766      627.72766      1686.1362      2313.8638      1686.1362      2313.8638      1686.1362      2313.8638      2.4735107e+08  0.1            7320000        0              0              0              0
Averages over the last 11 of 21 rows, steps 51700000 to 51800000:
Temp Press PotEng Density KinEng TotEng Lx Ly Lz Xlo Xhi Ylo Yhi Zlo Zhi Volume Dt
277105 2065.79 -2.67139e+07 2.02695 825172 -2.58887e+07 627.728 627.728 627.728 1686.14 2313.86 1686.14 2313.86 1686.14 2313.86 2.47351e+08 0.1
Loop time of 13.9298 on 4 procs for 200000 steps with 1000 atoms

unfix 2

fix 3 all nvt temp 370000 370000 $(100.0*dt) #iso 1.0 1.0 $(1000.0*dt)
fix 3 all nvt temp 370000 370000 10

run 500000
Generated 0 of 1 mixed pair_coeff terms from geometric mixing rule
Step          Temp          Press          PotEng        Density         KinEng         TotEng           Lx             Ly             Lz            Xlo            Xhi            Ylo            Yhi            Zlo            Zhi           Volume           Dt            Time           CPU           T/CPU          S/CPU         CPULeft
51800000   377467.47      3087.8144     -26409182       2.0269497      1124033.7     -25285148       627.72766      627.72766      627.72766      1686.1362      2313.8638      1686.1362      2313.8638      1686.1362      2313.8638      2.4735107e+08  0.1            7340000        0              0              0              0
Averages over the last 26 of 51 rows, steps 52050000 to 52300000:
Temp Press PotEng Density KinEng TotEng Lx Ly Lz Xlo Xhi Ylo Yhi Zlo Zhi Volume Dt
368854 3003.02 -2.62691e+07 2.02695 1.09838e+06 -2.51707e+07 627.728 627.728 627.728 1686.14 2313.86 1686.14 2313.86 1686.14 2313.86 2.47351e+08 0.1
Loop time of 34.8591 on 4 procs for 500000 steps with 1000 atoms

unfix 3

fix 4 all nvt temp 370000 300 $(100.0*dt)
fix 4 all nvt temp 370000 300 10

run 200000
Generated 0 of 1 mixed pair_coeff terms from geometric mixing rule
Step          Temp          Press          PotEng        Density         KinEng         TotEng           Lx             Ly             Lz            Xlo            Xhi            Ylo            Yhi            Zlo            Zhi           Volume           Dt            Time           CPU           T/CPU          S/CPU         CPULeft
52300000   382961.29      3030.308      -26190942       2.0269497      1140393.3     -25050549       627.72766      627.72766      627.72766      1686.1362      2313.8638      1686.1362      2313.8638      1686.1362      2313.8638      2.4735107e+08  0.1            7390000        0              0              0              0
Averages over the last 11 of 21 rows, steps 52400000 to 52500000:
Temp Press PotEng Density KinEng TotEng Lx Ly Lz Xlo Xhi Ylo Yhi Zlo Zhi Volume Dt
92912.1 901.301 -2.69722e+07 2.02695 276676 -2.66955e+07 627.728 627.728 627.728 1686.14 2313.86 1686.14 2313.86 1686.14 2313.86 2.47351e+08 0.1
Loop time of 14.057 on 4 procs for 200000 steps with 1000 atoms

unfix 4

fix 5 all npt temp 300 300 $(100.0*dt) iso 1.0 1.0 $(1000.0*dt)
fix 5 all npt temp 300 300 10 iso 1.0 1.0 $(1000.0*dt)
fix 5 all npt temp 300 300 10 iso 1.0 1.0 100

run 300000
Generated 0 of 1 mixed pair_coeff terms from geometric mixing rule
Step          Temp          Press          PotEng        Density         KinEng         TotEng           Lx             Ly             Lz            Xlo            Xhi            Ylo            Yhi            Zlo            Zhi           Volume           Dt            Time           CPU           T/CPU          S/CPU         CPULeft
52500000   523.78003      202.19126     -27218134       2.0269497      1559.7275     -27216574       627.72766      627.72766      627.72766      1686.1362      2313.8638      1686.1362      2313.8638      1686.1362      2313.8638      2.4735107e+08  0.1            7410000        0              0              0              0
Averages over the last 16 of 31 rows, steps 52650000 to 52800000:
Temp Press PotEng Density KinEng TotEng Lx Ly Lz Xlo Xhi Ylo Yhi Zlo Zhi Volume Dt
302.755 0.742374 -2.72282e+07 2.02726 901.551 -2.72273e+07 627.696 627.696 627.696 1686.15 2313.85 1686.15 2313.85 1686.15 2313.85 2.47314e+08 0.1
Loop time of 24.8418 on 4 procs for 300000 steps with 1000 atoms

# run_style
run_style verlet

# write restart
write_restart ./pgnpmf/6040/equpmf42.res
System init for write_restart ...
Generated 0 of 1 mixed pair_coeff terms from geometric mixing rule
