LAMMPS (23 Jun 2022 - Update 1)
# Read restart
read_restart ./pgnpmf/6040/equpmf9.res
Reading restart file ...
  restart file = 23 Jun 2022, LAMMPS = 23 Jun 2022
  restoring atom style atomic from restart
  orthogonal box = (1470.4642 1470.4642 1470.4642) to (2529.5358 2529.5358 2529.5358)
  restoring pair style table from restart
  1000 atoms
  read_restart CPU = 0.008 seconds

# Settings

pair_style table spline 9941

pair_coeff 1 1 ./pgnpmf/N20.txt DE_GNP 75.6
pair_coeff 2 2 ./pgnpmf/N100.txt DE_GNP 115.92
pair_coeff 1 2 ./pgnpmf/mixed_potential.txt DE_GNP 95.66

#Neigh_list Calc Frequency

neigh_modify delay 0 every 1 check yes

# Saving Frequency (50 frames)

variable ts_save equal 5000

# Dump
#dump_modify 1 first no sort id
dump 2 all cfg 50000 ./pgnpmf/6040/equilibration/trajectory/dumpgen.tens_*.cfg mass type xs ys zs fx fy fz
dump_modify 2 element N20 N100

# thermo_style
thermo_style custom step temp press pe density ke etotal lx ly lz xlo xhi ylo yhi zlo zhi vol dt time cpu tpcpu spcpu cpuremain

# run info
timestep 0.1
thermo 10000

# fix

fix 1 all momentum 1000 linear 1 1 1 angular
variable T equal 300
fix 2 all nvt temp 300 370000 100.0

run 200000
Generated 0 of 1 mixed pair_coeff terms from geometric mixing rule
Unused restart file global fix info:
  fix style: npt, fix ID: 5
  update every 1 steps, delay 0 steps, check yes
Step          Temp          Press          PotEng        Density         KinEng         TotEng           Lx             Ly             Lz            Xlo            Xhi            Ylo            Yhi            Zlo            Zhi           Volume           Dt            Time           CPU           T/CPU          S/CPU         CPULeft
13200000   307.63679      1.2141481     -6465664.7      0.42206642     916.08982     -6464748.6      1059.0716      1059.0716      1059.0716      1470.4642      2529.5358      1470.4642      2529.5358      1470.4642      2529.5358      1.1878893e+09  0.1            3480000        0              0              0              0
Averages over the last 11 of 21 rows, steps 13300000 to 13400000:
Temp Press PotEng Density KinEng TotEng Lx Ly Lz Xlo Xhi Ylo Yhi Zlo Zhi Volume Dt
273739 87.986 -6.69501e+06 0.422066 815147 -5.87986e+06 1059.07 1059.07 1059.07 1470.46 2529.54 1470.46 2529.54 1470.46 2529.54 1.18789e+09 0.1
Loop time of 6.60579 on 4 procs for 200000 steps with 1000 atoms

unfix 2

fix 3 all nvt temp 370000 370000 $(100.0*dt) #iso 1.0 1.0 $(1000.0*dt)
fix 3 all nvt temp 370000 370000 10

run 500000
Generated 0 of 1 mixed pair_coeff terms from geometric mixing rule
Step          Temp          Press          PotEng        Density         KinEng         TotEng           Lx             Ly             Lz            Xlo            Xhi            Ylo            Yhi            Zlo            Zhi           Volume           Dt            Time           CPU           T/CPU          S/CPU         CPULeft
13400000   355665.54      85.147657     -6648712.5      0.42206642     1059111.2     -5589601.2      1059.0716      1059.0716      1059.0716      1470.4642      2529.5358      1470.4642      2529.5358      1470.4642      2529.5358      1.1878893e+09  0.1            3500000        0              0              0              0
Averages over the last 26 of 51 rows, steps 13650000 to 13900000:
Temp Press PotEng Density KinEng TotEng Lx Ly Lz Xlo Xhi Ylo Yhi Zlo Zhi Volume Dt
368331 23.3588 -6.37485e+06 0.422066 1.09683e+06 -5.27802e+06 1059.07 1059.07 1059.07 1470.46 2529.54 1470.46 2529.54 1470.46 2529.54 1.18789e+09 0.1
Loop time of 16.7371 on 4 procs for 500000 steps with 1000 atoms

unfix 3

fix 4 all nvt temp 370000 300 $(100.0*dt)
fix 4 all nvt temp 370000 300 10

run 200000
Generated 0 of 1 mixed pair_coeff terms from geometric mixing rule
Step          Temp          Press          PotEng        Density         KinEng         TotEng           Lx             Ly             Lz            Xlo            Xhi            Ylo            Yhi            Zlo            Zhi           Volume           Dt            Time           CPU           T/CPU          S/CPU         CPULeft
13900000   374552         21.692207     -6500488.5      0.42206642     1115351.9     -5385136.6      1059.0716      1059.0716      1059.0716      1470.4642      2529.5358      1470.4642      2529.5358      1470.4642      2529.5358      1.1878893e+09  0.1            3550000        0              0              0              0
Averages over the last 11 of 21 rows, steps 14000000 to 14100000:
Temp Press PotEng Density KinEng TotEng Lx Ly Lz Xlo Xhi Ylo Yhi Zlo Zhi Volume Dt
91670.8 -48.0182 -6.90987e+06 0.422066 272980 -6.63689e+06 1059.07 1059.07 1059.07 1470.46 2529.54 1470.46 2529.54 1470.46 2529.54 1.18789e+09 0.1
Loop time of 6.62654 on 4 procs for 200000 steps with 1000 atoms

unfix 4

fix 5 all npt temp 300 300 $(100.0*dt) iso 1.0 1.0 $(1000.0*dt)
fix 5 all npt temp 300 300 10 iso 1.0 1.0 $(1000.0*dt)
fix 5 all npt temp 300 300 10 iso 1.0 1.0 100

run 300000
Generated 0 of 1 mixed pair_coeff terms from geometric mixing rule
Step          Temp          Press          PotEng        Density         KinEng         TotEng           Lx             Ly             Lz            Xlo            Xhi            Ylo            Yhi            Zlo            Zhi           Volume           Dt            Time           CPU           T/CPU          S/CPU         CPULeft
14100000   510.4572      -78.314378     -7090710.7      0.42206642     1520.0544     -7089190.6      1059.0716      1059.0716      1059.0716      1470.4642      2529.5358      1470.4642      2529.5358      1470.4642      2529.5358      1.1878893e+09  0.1            3570000        0              0              0              0
Averages over the last 16 of 31 rows, steps 14250000 to 14400000:
Temp Press PotEng Density KinEng TotEng Lx Ly Lz Xlo Xhi Ylo Yhi Zlo Zhi Volume Dt
309.041 1.0989 -7.5663e+06 0.462246 920.272 -7.56538e+06 1027.47 1027.47 1027.47 1486.26 2513.74 1486.26 2513.74 1486.26 2513.74 1.08475e+09 0.1
Loop time of 13.5183 on 4 procs for 300000 steps with 1000 atoms

# run_style
run_style verlet

# write restart
write_restart ./pgnpmf/6040/equpmf10.res
System init for write_restart ...
Generated 0 of 1 mixed pair_coeff terms from geometric mixing rule
