LAMMPS (23 Jun 2022 - Update 1)
# Read restart
read_restart ./pgnpmf/6040/equpmf31.res
Reading restart file ...
  restart file = 23 Jun 2022, LAMMPS = 23 Jun 2022
  restoring atom style atomic from restart
  orthogonal box = (1681.9602 1681.9602 1681.9602) to (2318.0398 2318.0398 2318.0398)
  restoring pair style table from restart
  1000 atoms
  read_restart CPU = 0.006 seconds

# Settings

pair_style table spline 9941

pair_coeff 1 1 ./pgnpmf/N20.txt DE_GNP 75.6
pair_coeff 2 2 ./pgnpmf/N100.txt DE_GNP 115.92
pair_coeff 1 2 ./pgnpmf/mixed_potential.txt DE_GNP 95.66

#Neigh_list Calc Frequency

neigh_modify delay 0 every 1 check yes

# Saving Frequency (50 frames)

variable ts_save equal 5000

# Dump
#dump_modify 1 first no sort id
dump 2 all cfg 50000 ./pgnpmf/6040/equilibration/trajectory/dumpgen.tens_*.cfg mass type xs ys zs fx fy fz
dump_modify 2 element N20 N100

# thermo_style
thermo_style custom step temp press pe density ke etotal lx ly lz xlo xhi ylo yhi zlo zhi vol dt time cpu tpcpu spcpu cpuremain

# run info
timestep 0.1
thermo 10000

# fix

fix 1 all momentum 1000 linear 1 1 1 angular
variable T equal 300
fix 2 all nvt temp 300 370000 100.0

run 200000
Generated 0 of 1 mixed pair_coeff terms from geometric mixing rule
Unused restart file global fix info:
  fix style: npt, fix ID: 5
  update every 1 steps, delay 0 steps, check yes
Step          Temp          Press          PotEng        Density         KinEng         TotEng           Lx             Ly             Lz            Xlo            Xhi            Ylo            Yhi            Zlo            Zhi           Volume           Dt            Time           CPU           T/CPU          S/CPU         CPULeft
39600000   304.5797      -1.1300139     -26389974       1.9481499      906.98634     -26389067       636.07959      636.07959      636.07959      1681.9602      2318.0398      1681.9602      2318.0398      1681.9602      2318.0398      2.5735605e+08  0.1            6120000        0              0              0              0
Averages over the last 11 of 21 rows, steps 39700000 to 39800000:
Temp Press PotEng Density KinEng TotEng Lx Ly Lz Xlo Xhi Ylo Yhi Zlo Zhi Volume Dt
277944 1343.36 -2.60204e+07 1.94815 827670 -2.51927e+07 636.08 636.08 636.08 1681.96 2318.04 1681.96 2318.04 1681.96 2318.04 2.57356e+08 0.1
Loop time of 13.6219 on 4 procs for 200000 steps with 1000 atoms

unfix 2

fix 3 all nvt temp 370000 370000 $(100.0*dt) #iso 1.0 1.0 $(1000.0*dt)
fix 3 all nvt temp 370000 370000 10

run 500000
Generated 0 of 1 mixed pair_coeff terms from geometric mixing rule
Step          Temp          Press          PotEng        Density         KinEng         TotEng           Lx             Ly             Lz            Xlo            Xhi            Ylo            Yhi            Zlo            Zhi           Volume           Dt            Time           CPU           T/CPU          S/CPU         CPULeft
39800000   366478.71      2107.3834     -25877521       1.9481499      1091311       -24786210       636.07959      636.07959      636.07959      1681.9602      2318.0398      1681.9602      2318.0398      1681.9602      2318.0398      2.5735605e+08  0.1            6140000        0              0              0              0
Averages over the last 26 of 51 rows, steps 40050000 to 40300000:
Temp Press PotEng Density KinEng TotEng Lx Ly Lz Xlo Xhi Ylo Yhi Zlo Zhi Volume Dt
371140 2079.41 -2.5751e+07 1.94815 1.10519e+06 -2.46458e+07 636.08 636.08 636.08 1681.96 2318.04 1681.96 2318.04 1681.96 2318.04 2.57356e+08 0.1
Loop time of 34.3387 on 4 procs for 500000 steps with 1000 atoms

unfix 3

fix 4 all nvt temp 370000 300 $(100.0*dt)
fix 4 all nvt temp 370000 300 10

run 200000
Generated 0 of 1 mixed pair_coeff terms from geometric mixing rule
Step          Temp          Press          PotEng        Density         KinEng         TotEng           Lx             Ly             Lz            Xlo            Xhi            Ylo            Yhi            Zlo            Zhi           Volume           Dt            Time           CPU           T/CPU          S/CPU         CPULeft
40300000   387218.68      2048.764      -25792490       1.9481499      1153071.1     -24639419       636.07959      636.07959      636.07959      1681.9602      2318.0398      1681.9602      2318.0398      1681.9602      2318.0398      2.5735605e+08  0.1            6190000        0              0              0              0
Averages over the last 11 of 21 rows, steps 40400000 to 40500000:
Temp Press PotEng Density KinEng TotEng Lx Ly Lz Xlo Xhi Ylo Yhi Zlo Zhi Volume Dt
94197.6 73.558 -2.63338e+07 1.94815 280504 -2.60533e+07 636.08 636.08 636.08 1681.96 2318.04 1681.96 2318.04 1681.96 2318.04 2.57356e+08 0.1
Loop time of 13.7137 on 4 procs for 200000 steps with 1000 atoms

unfix 4

fix 5 all npt temp 300 300 $(100.0*dt) iso 1.0 1.0 $(1000.0*dt)
fix 5 all npt temp 300 300 10 iso 1.0 1.0 $(1000.0*dt)
fix 5 all npt temp 300 300 10 iso 1.0 1.0 100

run 300000
Generated 0 of 1 mixed pair_coeff terms from geometric mixing rule
Step          Temp          Press          PotEng        Density         KinEng         TotEng           Lx             Ly             Lz            Xlo            Xhi            Ylo            Yhi            Zlo            Zhi           Volume           Dt            Time           CPU           T/CPU          S/CPU         CPULeft
40500000   521.01113     -614.56869     -26555725       1.9481499      1551.4822     -26554174       636.07959      636.07959      636.07959      1681.9602      2318.0398      1681.9602      2318.0398      1681.9602      2318.0398      2.5735605e+08  0.1            6210000        0              0              0              0
Averages over the last 16 of 31 rows, steps 40650000 to 40800000:
Temp Press PotEng Density KinEng TotEng Lx Ly Lz Xlo Xhi Ylo Yhi Zlo Zhi Volume Dt
304.117 1.25089 -2.68627e+07 1.98395 905.609 -2.68618e+07 632.231 632.231 632.231 1683.88 2316.12 1683.88 2316.12 1683.88 2316.12 2.52713e+08 0.1
Loop time of 24.542 on 4 procs for 300000 steps with 1000 atoms

# run_style
run_style verlet

# write restart
write_restart ./pgnpmf/6040/equpmf32.res
System init for write_restart ...
Generated 0 of 1 mixed pair_coeff terms from geometric mixing rule
