LAMMPS (23 Jun 2022 - Update 1)
# Read restart
read_restart ./pgnpmf/6040/equpmf27.res
Reading restart file ...
  restart file = 23 Jun 2022, LAMMPS = 23 Jun 2022
  restoring atom style atomic from restart
  orthogonal box = (1660.6759 1660.6759 1660.6759) to (2339.3241 2339.3241 2339.3241)
  restoring pair style table from restart
  1000 atoms
  read_restart CPU = 0.004 seconds

# Settings

pair_style table spline 9941

pair_coeff 1 1 ./pgnpmf/N20.txt DE_GNP 75.6
pair_coeff 2 2 ./pgnpmf/N100.txt DE_GNP 115.92
pair_coeff 1 2 ./pgnpmf/mixed_potential.txt DE_GNP 95.66

#Neigh_list Calc Frequency

neigh_modify delay 0 every 1 check yes

# Saving Frequency (50 frames)

variable ts_save equal 5000

# Dump
#dump_modify 1 first no sort id
dump 2 all cfg 50000 ./pgnpmf/6040/equilibration/trajectory/dumpgen.tens_*.cfg mass type xs ys zs fx fy fz
dump_modify 2 element N20 N100

# thermo_style
thermo_style custom step temp press pe density ke etotal lx ly lz xlo xhi ylo yhi zlo zhi vol dt time cpu tpcpu spcpu cpuremain

# run info
timestep 0.1
thermo 10000

# fix

fix 1 all momentum 1000 linear 1 1 1 angular
variable T equal 300
fix 2 all nvt temp 300 370000 100.0

run 200000
Generated 0 of 1 mixed pair_coeff terms from geometric mixing rule
Unused restart file global fix info:
  fix style: npt, fix ID: 5
  update every 1 steps, delay 0 steps, check yes
Step          Temp          Press          PotEng        Density         KinEng         TotEng           Lx             Ly             Lz            Xlo            Xhi            Ylo            Yhi            Zlo            Zhi           Volume           Dt            Time           CPU           T/CPU          S/CPU         CPULeft
34800000   308.2017       1.603388      -23785958       1.6040678      917.77203     -23785040       678.64817      678.64817      678.64817      1660.6759      2339.3241      1660.6759      2339.3241      1660.6759      2339.3241      3.1256047e+08  0.1            5640000        0              0              0              0
Averages over the last 11 of 21 rows, steps 34900000 to 35000000:
Temp Press PotEng Density KinEng TotEng Lx Ly Lz Xlo Xhi Ylo Yhi Zlo Zhi Volume Dt
276802 240.653 -2.37549e+07 1.60407 824269 -2.29306e+07 678.648 678.648 678.648 1660.68 2339.32 1660.68 2339.32 1660.68 2339.32 3.1256e+08 0.1
Loop time of 13.5749 on 4 procs for 200000 steps with 1000 atoms

unfix 2

fix 3 all nvt temp 370000 370000 $(100.0*dt) #iso 1.0 1.0 $(1000.0*dt)
fix 3 all nvt temp 370000 370000 10

run 500000
Generated 0 of 1 mixed pair_coeff terms from geometric mixing rule
Step          Temp          Press          PotEng        Density         KinEng         TotEng           Lx             Ly             Lz            Xlo            Xhi            Ylo            Yhi            Zlo            Zhi           Volume           Dt            Time           CPU           T/CPU          S/CPU         CPULeft
35000000   365510.91      719.853       -23631330       1.6040678      1088429.1     -22542901       678.64817      678.64817      678.64817      1660.6759      2339.3241      1660.6759      2339.3241      1660.6759      2339.3241      3.1256047e+08  0.1            5660000        0              0              0              0
Averages over the last 26 of 51 rows, steps 35250000 to 35500000:
Temp Press PotEng Density KinEng TotEng Lx Ly Lz Xlo Xhi Ylo Yhi Zlo Zhi Volume Dt
368919 321.007 -2.31545e+07 1.60407 1.09858e+06 -2.20559e+07 678.648 678.648 678.648 1660.68 2339.32 1660.68 2339.32 1660.68 2339.32 3.1256e+08 0.1
Loop time of 33.5005 on 4 procs for 500000 steps with 1000 atoms

unfix 3

fix 4 all nvt temp 370000 300 $(100.0*dt)
fix 4 all nvt temp 370000 300 10

run 200000
Generated 0 of 1 mixed pair_coeff terms from geometric mixing rule
Step          Temp          Press          PotEng        Density         KinEng         TotEng           Lx             Ly             Lz            Xlo            Xhi            Ylo            Yhi            Zlo            Zhi           Volume           Dt            Time           CPU           T/CPU          S/CPU         CPULeft
35500000   373921.97      378.84684     -23134704       1.6040678      1113475.8     -22021229       678.64817      678.64817      678.64817      1660.6759      2339.3241      1660.6759      2339.3241      1660.6759      2339.3241      3.1256047e+08  0.1            5710000        0              0              0              0
Averages over the last 11 of 21 rows, steps 35600000 to 35700000:
Temp Press PotEng Density KinEng TotEng Lx Ly Lz Xlo Xhi Ylo Yhi Zlo Zhi Volume Dt
92288.5 -767.25 -2.3392e+07 1.60407 274819 -2.31171e+07 678.648 678.648 678.648 1660.68 2339.32 1660.68 2339.32 1660.68 2339.32 3.1256e+08 0.1
Loop time of 13.1061 on 4 procs for 200000 steps with 1000 atoms

unfix 4

fix 5 all npt temp 300 300 $(100.0*dt) iso 1.0 1.0 $(1000.0*dt)
fix 5 all npt temp 300 300 10 iso 1.0 1.0 $(1000.0*dt)
fix 5 all npt temp 300 300 10 iso 1.0 1.0 100

run 300000
Generated 0 of 1 mixed pair_coeff terms from geometric mixing rule
Step          Temp          Press          PotEng        Density         KinEng         TotEng           Lx             Ly             Lz            Xlo            Xhi            Ylo            Yhi            Zlo            Zhi           Volume           Dt            Time           CPU           T/CPU          S/CPU         CPULeft
35700000   518.58893     -1149.7931     -23524837       1.6040678      1544.2693     -23523292       678.64817      678.64817      678.64817      1660.6759      2339.3241      1660.6759      2339.3241      1660.6759      2339.3241      3.1256047e+08  0.1            5730000        0              0              0              0
Averages over the last 16 of 31 rows, steps 35850000 to 36000000:
Temp Press PotEng Density KinEng TotEng Lx Ly Lz Xlo Xhi Ylo Yhi Zlo Zhi Volume Dt
309.031 0.255828 -2.42964e+07 1.69442 920.241 -2.42954e+07 666.365 666.365 666.365 1666.82 2333.18 1666.82 2333.18 1666.82 2333.18 2.95895e+08 0.1
Loop time of 23.5935 on 4 procs for 300000 steps with 1000 atoms

# run_style
run_style verlet

# write restart
write_restart ./pgnpmf/6040/equpmf28.res
System init for write_restart ...
Generated 0 of 1 mixed pair_coeff terms from geometric mixing rule
