LAMMPS (23 Jun 2022 - Update 1)
# Read restart
read_restart ./pgnpmf/6040/equpmf54.res
Reading restart file ...
  restart file = 23 Jun 2022, LAMMPS = 23 Jun 2022
  restoring atom style atomic from restart
  orthogonal box = (1686.6626 1686.6626 1686.6626) to (2313.3374 2313.3374 2313.3374)
  restoring pair style table from restart
  1000 atoms
  read_restart CPU = 0.005 seconds

# Settings

pair_style table spline 9941

pair_coeff 1 1 ./pgnpmf/N20.txt DE_GNP 75.6
pair_coeff 2 2 ./pgnpmf/N100.txt DE_GNP 115.92
pair_coeff 1 2 ./pgnpmf/mixed_potential.txt DE_GNP 95.66

#Neigh_list Calc Frequency

neigh_modify delay 0 every 1 check yes

# Saving Frequency (50 frames)

variable ts_save equal 5000

# Dump
#dump_modify 1 first no sort id
dump 2 all cfg 50000 ./pgnpmf/6040/equilibration/trajectory/dumpgen.tens_*.cfg mass type xs ys zs fx fy fz
dump_modify 2 element N20 N100

# thermo_style
thermo_style custom step temp press pe density ke etotal lx ly lz xlo xhi ylo yhi zlo zhi vol dt time cpu tpcpu spcpu cpuremain

# run info
timestep 0.1
thermo 10000

# fix

fix 1 all momentum 1000 linear 1 1 1 angular
variable T equal 300
fix 2 all nvt temp 300 370000 100.0

run 200000
Generated 0 of 1 mixed pair_coeff terms from geometric mixing rule
Unused restart file global fix info:
  fix style: npt, fix ID: 5
  update every 1 steps, delay 0 steps, check yes
Step          Temp          Press          PotEng        Density         KinEng         TotEng           Lx             Ly             Lz            Xlo            Xhi            Ylo            Yhi            Zlo            Zhi           Volume           Dt            Time           CPU           T/CPU          S/CPU         CPULeft
67200000   299.18588      0.77912898    -27242397       2.0371823      890.92446     -27241506       626.67488      626.67488      626.67488      1686.6626      2313.3374      1686.6626      2313.3374      1686.6626      2313.3374      2.4610864e+08  0.1            8880000        0              0              0              0
Averages over the last 11 of 21 rows, steps 67300000 to 67400000:
Temp Press PotEng Density KinEng TotEng Lx Ly Lz Xlo Xhi Ylo Yhi Zlo Zhi Volume Dt
275630 2226.08 -2.6765e+07 2.03718 820778 -2.59443e+07 626.675 626.675 626.675 1686.66 2313.34 1686.66 2313.34 1686.66 2313.34 2.46109e+08 0.1
Loop time of 15.2836 on 4 procs for 200000 steps with 1000 atoms

unfix 2

fix 3 all nvt temp 370000 370000 $(100.0*dt) #iso 1.0 1.0 $(1000.0*dt)
fix 3 all nvt temp 370000 370000 10

run 500000
Generated 0 of 1 mixed pair_coeff terms from geometric mixing rule
Step          Temp          Press          PotEng        Density         KinEng         TotEng           Lx             Ly             Lz            Xlo            Xhi            Ylo            Yhi            Zlo            Zhi           Volume           Dt            Time           CPU           T/CPU          S/CPU         CPULeft
67400000   370815.52      3130.8441     -26440453       2.0371823      1104225.3     -25336228       626.67488      626.67488      626.67488      1686.6626      2313.3374      1686.6626      2313.3374      1686.6626      2313.3374      2.4610864e+08  0.1            8900000        0              0              0              0
Averages over the last 26 of 51 rows, steps 67650000 to 67900000:
Temp Press PotEng Density KinEng TotEng Lx Ly Lz Xlo Xhi Ylo Yhi Zlo Zhi Volume Dt
371211 2929.14 -2.63276e+07 2.03718 1.1054e+06 -2.52222e+07 626.675 626.675 626.675 1686.66 2313.34 1686.66 2313.34 1686.66 2313.34 2.46109e+08 0.1
Loop time of 38.3526 on 4 procs for 500000 steps with 1000 atoms

unfix 3

fix 4 all nvt temp 370000 300 $(100.0*dt)
fix 4 all nvt temp 370000 300 10

run 200000
Generated 0 of 1 mixed pair_coeff terms from geometric mixing rule
Step          Temp          Press          PotEng        Density         KinEng         TotEng           Lx             Ly             Lz            Xlo            Xhi            Ylo            Yhi            Zlo            Zhi           Volume           Dt            Time           CPU           T/CPU          S/CPU         CPULeft
67900000   355218.35      2874.449      -26323137       2.0371823      1057779.6     -25265358       626.67488      626.67488      626.67488      1686.6626      2313.3374      1686.6626      2313.3374      1686.6626      2313.3374      2.4610864e+08  0.1            8950000        0              0              0              0
Averages over the last 11 of 21 rows, steps 68000000 to 68100000:
Temp Press PotEng Density KinEng TotEng Lx Ly Lz Xlo Xhi Ylo Yhi Zlo Zhi Volume Dt
92443.2 884.581 -2.69901e+07 2.03718 275280 -2.67148e+07 626.675 626.675 626.675 1686.66 2313.34 1686.66 2313.34 1686.66 2313.34 2.46109e+08 0.1
Loop time of 15.0779 on 4 procs for 200000 steps with 1000 atoms

unfix 4

fix 5 all npt temp 300 300 $(100.0*dt) iso 1.0 1.0 $(1000.0*dt)
fix 5 all npt temp 300 300 10 iso 1.0 1.0 $(1000.0*dt)
fix 5 all npt temp 300 300 10 iso 1.0 1.0 100

run 300000
Generated 0 of 1 mixed pair_coeff terms from geometric mixing rule
Step          Temp          Press          PotEng        Density         KinEng         TotEng           Lx             Ly             Lz            Xlo            Xhi            Ylo            Yhi            Zlo            Zhi           Volume           Dt            Time           CPU           T/CPU          S/CPU         CPULeft
68100000   524.08694      153.45613     -27258041       2.0371823      1560.6414     -27256480       626.67488      626.67488      626.67488      1686.6626      2313.3374      1686.6626      2313.3374      1686.6626      2313.3374      2.4610864e+08  0.1            8970000        0              0              0              0
Averages over the last 16 of 31 rows, steps 68250000 to 68400000:
Temp Press PotEng Density KinEng TotEng Lx Ly Lz Xlo Xhi Ylo Yhi Zlo Zhi Volume Dt
301.891 -0.40813 -2.73691e+07 2.03972 898.981 -2.73682e+07 626.415 626.415 626.415 1686.79 2313.21 1686.79 2313.21 1686.79 2313.21 2.45803e+08 0.1
Loop time of 26.9241 on 4 procs for 300000 steps with 1000 atoms

# run_style
run_style verlet

# write restart
write_restart ./pgnpmf/6040/equpmf55.res
System init for write_restart ...
Generated 0 of 1 mixed pair_coeff terms from geometric mixing rule
