LAMMPS (23 Jun 2022 - Update 1)
# Read restart
read_restart ./pgnpmf/6040/equpmf49.res
Reading restart file ...
  restart file = 23 Jun 2022, LAMMPS = 23 Jun 2022
  restoring atom style atomic from restart
  orthogonal box = (1686.3661 1686.3661 1686.3661) to (2313.6339 2313.6339 2313.6339)
  restoring pair style table from restart
  1000 atoms
  read_restart CPU = 0.006 seconds

# Settings

pair_style table spline 9941

pair_coeff 1 1 ./pgnpmf/N20.txt DE_GNP 75.6
pair_coeff 2 2 ./pgnpmf/N100.txt DE_GNP 115.92
pair_coeff 1 2 ./pgnpmf/mixed_potential.txt DE_GNP 95.66

#Neigh_list Calc Frequency

neigh_modify delay 0 every 1 check yes

# Saving Frequency (50 frames)

variable ts_save equal 5000

# Dump
#dump_modify 1 first no sort id
dump 2 all cfg 50000 ./pgnpmf/6040/equilibration/trajectory/dumpgen.tens_*.cfg mass type xs ys zs fx fy fz
dump_modify 2 element N20 N100

# thermo_style
thermo_style custom step temp press pe density ke etotal lx ly lz xlo xhi ylo yhi zlo zhi vol dt time cpu tpcpu spcpu cpuremain

# run info
timestep 0.1
thermo 10000

# fix

fix 1 all momentum 1000 linear 1 1 1 angular
variable T equal 300
fix 2 all nvt temp 300 370000 100.0

run 200000
Generated 0 of 1 mixed pair_coeff terms from geometric mixing rule
Unused restart file global fix info:
  fix style: npt, fix ID: 5
  update every 1 steps, delay 0 steps, check yes
Step          Temp          Press          PotEng        Density         KinEng         TotEng           Lx             Ly             Lz            Xlo            Xhi            Ylo            Yhi            Zlo            Zhi           Volume           Dt            Time           CPU           T/CPU          S/CPU         CPULeft
61200000   293.62253      2.1244893     -27234927       2.0314103      874.35776     -27234052       627.26786      627.26786      627.26786      1686.3661      2313.6339      1686.3661      2313.6339      1686.3661      2313.6339      2.4680793e+08  0.1            8280000        0              0              0              0
Averages over the last 11 of 21 rows, steps 61300000 to 61400000:
Temp Press PotEng Density KinEng TotEng Lx Ly Lz Xlo Xhi Ylo Yhi Zlo Zhi Volume Dt
273798 1899.98 -2.67786e+07 2.03141 815324 -2.59632e+07 627.268 627.268 627.268 1686.37 2313.63 1686.37 2313.63 1686.37 2313.63 2.46808e+08 0.1
Loop time of 14.1936 on 4 procs for 200000 steps with 1000 atoms

unfix 2

fix 3 all nvt temp 370000 370000 $(100.0*dt) #iso 1.0 1.0 $(1000.0*dt)
fix 3 all nvt temp 370000 370000 10

run 500000
Generated 0 of 1 mixed pair_coeff terms from geometric mixing rule
Step          Temp          Press          PotEng        Density         KinEng         TotEng           Lx             Ly             Lz            Xlo            Xhi            Ylo            Yhi            Zlo            Zhi           Volume           Dt            Time           CPU           T/CPU          S/CPU         CPULeft
61400000   368650.62      2704.4236     -26625601       2.0314103      1097778.6     -25527823       627.26786      627.26786      627.26786      1686.3661      2313.6339      1686.3661      2313.6339      1686.3661      2313.6339      2.4680793e+08  0.1            8300000        0              0              0              0
Averages over the last 26 of 51 rows, steps 61650000 to 61900000:
Temp Press PotEng Density KinEng TotEng Lx Ly Lz Xlo Xhi Ylo Yhi Zlo Zhi Volume Dt
369119 3011.34 -2.63194e+07 2.03141 1.09917e+06 -2.52202e+07 627.268 627.268 627.268 1686.37 2313.63 1686.37 2313.63 1686.37 2313.63 2.46808e+08 0.1
Loop time of 35.6307 on 4 procs for 500000 steps with 1000 atoms

unfix 3

fix 4 all nvt temp 370000 300 $(100.0*dt)
fix 4 all nvt temp 370000 300 10

run 200000
Generated 0 of 1 mixed pair_coeff terms from geometric mixing rule
Step          Temp          Press          PotEng        Density         KinEng         TotEng           Lx             Ly             Lz            Xlo            Xhi            Ylo            Yhi            Zlo            Zhi           Volume           Dt            Time           CPU           T/CPU          S/CPU         CPULeft
61900000   358994.55      2916.2677     -26367889       2.0314103      1069024.5     -25298864       627.26786      627.26786      627.26786      1686.3661      2313.6339      1686.3661      2313.6339      1686.3661      2313.6339      2.4680793e+08  0.1            8350000        0              0              0              0
Averages over the last 11 of 21 rows, steps 62000000 to 62100000:
Temp Press PotEng Density KinEng TotEng Lx Ly Lz Xlo Xhi Ylo Yhi Zlo Zhi Volume Dt
92287.9 924.642 -2.69867e+07 2.03141 274818 -2.67119e+07 627.268 627.268 627.268 1686.37 2313.63 1686.37 2313.63 1686.37 2313.63 2.46808e+08 0.1
Loop time of 14.104 on 4 procs for 200000 steps with 1000 atoms

unfix 4

fix 5 all npt temp 300 300 $(100.0*dt) iso 1.0 1.0 $(1000.0*dt)
fix 5 all npt temp 300 300 10 iso 1.0 1.0 $(1000.0*dt)
fix 5 all npt temp 300 300 10 iso 1.0 1.0 100

run 300000
Generated 0 of 1 mixed pair_coeff terms from geometric mixing rule
Step          Temp          Press          PotEng        Density         KinEng         TotEng           Lx             Ly             Lz            Xlo            Xhi            Ylo            Yhi            Zlo            Zhi           Volume           Dt            Time           CPU           T/CPU          S/CPU         CPULeft
62100000   524.891        213.89918     -27200384       2.0314103      1563.0358     -27198820       627.26786      627.26786      627.26786      1686.3661      2313.6339      1686.3661      2313.6339      1686.3661      2313.6339      2.4680793e+08  0.1            8370000        0              0              0              0
Averages over the last 16 of 31 rows, steps 62250000 to 62400000:
Temp Press PotEng Density KinEng TotEng Lx Ly Lz Xlo Xhi Ylo Yhi Zlo Zhi Volume Dt
302.463 1.86633 -2.73166e+07 2.03238 900.684 -2.73157e+07 627.168 627.168 627.168 1686.42 2313.58 1686.42 2313.58 1686.42 2313.58 2.4669e+08 0.1
Loop time of 25.0152 on 4 procs for 300000 steps with 1000 atoms

# run_style
run_style verlet

# write restart
write_restart ./pgnpmf/6040/equpmf50.res
System init for write_restart ...
Generated 0 of 1 mixed pair_coeff terms from geometric mixing rule
