LAMMPS (23 Jun 2022 - Update 1)
# Read restart
read_restart ./pgnpmf/6040/equpmf50.res
Reading restart file ...
  restart file = 23 Jun 2022, LAMMPS = 23 Jun 2022
  restoring atom style atomic from restart
  orthogonal box = (1686.4844 1686.4844 1686.4844) to (2313.5156 2313.5156 2313.5156)
  restoring pair style table from restart
  1000 atoms
  read_restart CPU = 0.008 seconds

# Settings

pair_style table spline 9941

pair_coeff 1 1 ./pgnpmf/N20.txt DE_GNP 75.6
pair_coeff 2 2 ./pgnpmf/N100.txt DE_GNP 115.92
pair_coeff 1 2 ./pgnpmf/mixed_potential.txt DE_GNP 95.66

#Neigh_list Calc Frequency

neigh_modify delay 0 every 1 check yes

# Saving Frequency (50 frames)

variable ts_save equal 5000

# Dump
#dump_modify 1 first no sort id
dump 2 all cfg 50000 ./pgnpmf/6040/equilibration/trajectory/dumpgen.tens_*.cfg mass type xs ys zs fx fy fz
dump_modify 2 element N20 N100

# thermo_style
thermo_style custom step temp press pe density ke etotal lx ly lz xlo xhi ylo yhi zlo zhi vol dt time cpu tpcpu spcpu cpuremain

# run info
timestep 0.1
thermo 10000

# fix

fix 1 all momentum 1000 linear 1 1 1 angular
variable T equal 300
fix 2 all nvt temp 300 370000 100.0

run 200000
Generated 0 of 1 mixed pair_coeff terms from geometric mixing rule
Unused restart file global fix info:
  fix style: npt, fix ID: 5
  update every 1 steps, delay 0 steps, check yes
Step          Temp          Press          PotEng        Density         KinEng         TotEng           Lx             Ly             Lz            Xlo            Xhi            Ylo            Yhi            Zlo            Zhi           Volume           Dt            Time           CPU           T/CPU          S/CPU         CPULeft
62400000   290.57549      2.8326842     -27335048       2.0337108      865.2842      -27334183       627.03125      627.03125      627.03125      1686.4844      2313.5156      1686.4844      2313.5156      1686.4844      2313.5156      2.4652874e+08  0.1            8400000        0              0              0              0
Averages over the last 11 of 21 rows, steps 62500000 to 62600000:
Temp Press PotEng Density KinEng TotEng Lx Ly Lz Xlo Xhi Ylo Yhi Zlo Zhi Volume Dt
276733 2136.34 -2.66443e+07 2.03371 824064 -2.58202e+07 627.031 627.031 627.031 1686.48 2313.52 1686.48 2313.52 1686.48 2313.52 2.46529e+08 0.1
Loop time of 13.9452 on 4 procs for 200000 steps with 1000 atoms

unfix 2

fix 3 all nvt temp 370000 370000 $(100.0*dt) #iso 1.0 1.0 $(1000.0*dt)
fix 3 all nvt temp 370000 370000 10

run 500000
Generated 0 of 1 mixed pair_coeff terms from geometric mixing rule
Step          Temp          Press          PotEng        Density         KinEng         TotEng           Lx             Ly             Lz            Xlo            Xhi            Ylo            Yhi            Zlo            Zhi           Volume           Dt            Time           CPU           T/CPU          S/CPU         CPULeft
62600000   359671.25      3068.4216     -26327734       2.0337108      1071039.6     -25256694       627.03125      627.03125      627.03125      1686.4844      2313.5156      1686.4844      2313.5156      1686.4844      2313.5156      2.4652874e+08  0.1            8420000        0              0              0              0
Averages over the last 26 of 51 rows, steps 62850000 to 63100000:
Temp Press PotEng Density KinEng TotEng Lx Ly Lz Xlo Xhi Ylo Yhi Zlo Zhi Volume Dt
370025 2972.99 -2.62821e+07 2.03371 1.10187e+06 -2.51802e+07 627.031 627.031 627.031 1686.48 2313.52 1686.48 2313.52 1686.48 2313.52 2.46529e+08 0.1
Loop time of 34.831 on 4 procs for 500000 steps with 1000 atoms

unfix 3

fix 4 all nvt temp 370000 300 $(100.0*dt)
fix 4 all nvt temp 370000 300 10

run 200000
Generated 0 of 1 mixed pair_coeff terms from geometric mixing rule
Step          Temp          Press          PotEng        Density         KinEng         TotEng           Lx             Ly             Lz            Xlo            Xhi            Ylo            Yhi            Zlo            Zhi           Volume           Dt            Time           CPU           T/CPU          S/CPU         CPULeft
63100000   371086.59      3014.4228     -26290808       2.0337108      1105032.5     -25185776       627.03125      627.03125      627.03125      1686.4844      2313.5156      1686.4844      2313.5156      1686.4844      2313.5156      2.4652874e+08  0.1            8470000        0              0              0              0
Averages over the last 11 of 21 rows, steps 63200000 to 63300000:
Temp Press PotEng Density KinEng TotEng Lx Ly Lz Xlo Xhi Ylo Yhi Zlo Zhi Volume Dt
92458.6 1049.98 -2.68787e+07 2.03371 275326 -2.66034e+07 627.031 627.031 627.031 1686.48 2313.52 1686.48 2313.52 1686.48 2313.52 2.46529e+08 0.1
Loop time of 13.8889 on 4 procs for 200000 steps with 1000 atoms

unfix 4

fix 5 all npt temp 300 300 $(100.0*dt) iso 1.0 1.0 $(1000.0*dt)
fix 5 all npt temp 300 300 10 iso 1.0 1.0 $(1000.0*dt)
fix 5 all npt temp 300 300 10 iso 1.0 1.0 100

run 300000
Generated 0 of 1 mixed pair_coeff terms from geometric mixing rule
Step          Temp          Press          PotEng        Density         KinEng         TotEng           Lx             Ly             Lz            Xlo            Xhi            Ylo            Yhi            Zlo            Zhi           Volume           Dt            Time           CPU           T/CPU          S/CPU         CPULeft
63300000   524.9815       324.82735     -27075403       2.0337108      1563.3052     -27073839       627.03125      627.03125      627.03125      1686.4844      2313.5156      1686.4844      2313.5156      1686.4844      2313.5156      2.4652874e+08  0.1            8490000        0              0              0              0
Averages over the last 16 of 31 rows, steps 63450000 to 63600000:
Temp Press PotEng Density KinEng TotEng Lx Ly Lz Xlo Xhi Ylo Yhi Zlo Zhi Volume Dt
302.357 1.14691 -2.71282e+07 2.02974 900.368 -2.71273e+07 627.44 627.44 627.44 1686.28 2313.72 1686.28 2313.72 1686.28 2313.72 2.47011e+08 0.1
Loop time of 24.6986 on 4 procs for 300000 steps with 1000 atoms

# run_style
run_style verlet

# write restart
write_restart ./pgnpmf/6040/equpmf51.res
System init for write_restart ...
Generated 0 of 1 mixed pair_coeff terms from geometric mixing rule
