LAMMPS (23 Jun 2022 - Update 1)
# Read restart
read_restart ./pgnpmf/6040/equpmf53.res
Reading restart file ...
  restart file = 23 Jun 2022, LAMMPS = 23 Jun 2022
  restoring atom style atomic from restart
  orthogonal box = (1686.5629 1686.5629 1686.5629) to (2313.4371 2313.4371 2313.4371)
  restoring pair style table from restart
  1000 atoms
  read_restart CPU = 0.031 seconds

# Settings

pair_style table spline 9941

pair_coeff 1 1 ./pgnpmf/N20.txt DE_GNP 75.6
pair_coeff 2 2 ./pgnpmf/N100.txt DE_GNP 115.92
pair_coeff 1 2 ./pgnpmf/mixed_potential.txt DE_GNP 95.66

#Neigh_list Calc Frequency

neigh_modify delay 0 every 1 check yes

# Saving Frequency (50 frames)

variable ts_save equal 5000

# Dump
#dump_modify 1 first no sort id
dump 2 all cfg 50000 ./pgnpmf/6040/equilibration/trajectory/dumpgen.tens_*.cfg mass type xs ys zs fx fy fz
dump_modify 2 element N20 N100

# thermo_style
thermo_style custom step temp press pe density ke etotal lx ly lz xlo xhi ylo yhi zlo zhi vol dt time cpu tpcpu spcpu cpuremain

# run info
timestep 0.1
thermo 10000

# fix

fix 1 all momentum 1000 linear 1 1 1 angular
variable T equal 300
fix 2 all nvt temp 300 370000 100.0

run 200000
Generated 0 of 1 mixed pair_coeff terms from geometric mixing rule
Unused restart file global fix info:
  fix style: npt, fix ID: 5
  update every 1 steps, delay 0 steps, check yes
Step          Temp          Press          PotEng        Density         KinEng         TotEng           Lx             Ly             Lz            Xlo            Xhi            Ylo            Yhi            Zlo            Zhi           Volume           Dt            Time           CPU           T/CPU          S/CPU         CPULeft
66000000   299.73663      11.298164     -27152232       2.0352392      892.56449     -27151339       626.87425      626.87425      626.87425      1686.5629      2313.4371      1686.5629      2313.4371      1686.5629      2313.4371      2.4634361e+08  0.1            8760000        0              0              0              0
Averages over the last 11 of 21 rows, steps 66100000 to 66200000:
Temp Press PotEng Density KinEng TotEng Lx Ly Lz Xlo Xhi Ylo Yhi Zlo Zhi Volume Dt
276545 2234.83 -2.66143e+07 2.03524 823502 -2.57908e+07 626.874 626.874 626.874 1686.56 2313.44 1686.56 2313.44 1686.56 2313.44 2.46344e+08 0.1
Loop time of 14.9835 on 4 procs for 200000 steps with 1000 atoms

unfix 2

fix 3 all nvt temp 370000 370000 $(100.0*dt) #iso 1.0 1.0 $(1000.0*dt)
fix 3 all nvt temp 370000 370000 10

run 500000
Generated 0 of 1 mixed pair_coeff terms from geometric mixing rule
Step          Temp          Press          PotEng        Density         KinEng         TotEng           Lx             Ly             Lz            Xlo            Xhi            Ylo            Yhi            Zlo            Zhi           Volume           Dt            Time           CPU           T/CPU          S/CPU         CPULeft
66200000   373302.44      3161.6924     -26375661       2.0352392      1111630.9     -25264030       626.87425      626.87425      626.87425      1686.5629      2313.4371      1686.5629      2313.4371      1686.5629      2313.4371      2.4634361e+08  0.1            8780000        0              0              0              0
Averages over the last 26 of 51 rows, steps 66450000 to 66700000:
Temp Press PotEng Density KinEng TotEng Lx Ly Lz Xlo Xhi Ylo Yhi Zlo Zhi Volume Dt
371848 2962.92 -2.6234e+07 2.03524 1.1073e+06 -2.51267e+07 626.874 626.874 626.874 1686.56 2313.44 1686.56 2313.44 1686.56 2313.44 2.46344e+08 0.1
Loop time of 54.7019 on 4 procs for 500000 steps with 1000 atoms

unfix 3

fix 4 all nvt temp 370000 300 $(100.0*dt)
fix 4 all nvt temp 370000 300 10

run 200000
Generated 0 of 1 mixed pair_coeff terms from geometric mixing rule
Step          Temp          Press          PotEng        Density         KinEng         TotEng           Lx             Ly             Lz            Xlo            Xhi            Ylo            Yhi            Zlo            Zhi           Volume           Dt            Time           CPU           T/CPU          S/CPU         CPULeft
66700000   374550.86      2888.1206     -26324571       2.0352392      1115348.5     -25209222       626.87425      626.87425      626.87425      1686.5629      2313.4371      1686.5629      2313.4371      1686.5629      2313.4371      2.4634361e+08  0.1            8830000        0              0              0              0
Averages over the last 11 of 21 rows, steps 66800000 to 66900000:
Temp Press PotEng Density KinEng TotEng Lx Ly Lz Xlo Xhi Ylo Yhi Zlo Zhi Volume Dt
93989.9 879.121 -2.69579e+07 2.03524 279886 -2.6678e+07 626.874 626.874 626.874 1686.56 2313.44 1686.56 2313.44 1686.56 2313.44 2.46344e+08 0.1
Loop time of 15.2022 on 4 procs for 200000 steps with 1000 atoms

unfix 4

fix 5 all npt temp 300 300 $(100.0*dt) iso 1.0 1.0 $(1000.0*dt)
fix 5 all npt temp 300 300 10 iso 1.0 1.0 $(1000.0*dt)
fix 5 all npt temp 300 300 10 iso 1.0 1.0 100

run 300000
Generated 0 of 1 mixed pair_coeff terms from geometric mixing rule
Step          Temp          Press          PotEng        Density         KinEng         TotEng           Lx             Ly             Lz            Xlo            Xhi            Ylo            Yhi            Zlo            Zhi           Volume           Dt            Time           CPU           T/CPU          S/CPU         CPULeft
66900000   524.09318      190.55284     -27187172       2.0352392      1560.66       -27185611       626.87425      626.87425      626.87425      1686.5629      2313.4371      1686.5629      2313.4371      1686.5629      2313.4371      2.4634361e+08  0.1            8850000        0              0              0              0
Averages over the last 16 of 31 rows, steps 67050000 to 67200000:
Temp Press PotEng Density KinEng TotEng Lx Ly Lz Xlo Xhi Ylo Yhi Zlo Zhi Volume Dt
302.364 1.31606 -2.72415e+07 2.03627 900.39 -2.72406e+07 626.768 626.768 626.768 1686.62 2313.38 1686.62 2313.38 1686.62 2313.38 2.46218e+08 0.1
Loop time of 27.3304 on 4 procs for 300000 steps with 1000 atoms

# run_style
run_style verlet

# write restart
write_restart ./pgnpmf/6040/equpmf54.res
System init for write_restart ...
Generated 0 of 1 mixed pair_coeff terms from geometric mixing rule
