LAMMPS (23 Jun 2022 - Update 1)
# Read restart
read_restart ./pgnpmf/6040/equpmf37.res
Reading restart file ...
  restart file = 23 Jun 2022, LAMMPS = 23 Jun 2022
  restoring atom style atomic from restart
  orthogonal box = (1686.0963 1686.0963 1686.0963) to (2313.9037 2313.9037 2313.9037)
  restoring pair style table from restart
  1000 atoms
  read_restart CPU = 0.006 seconds

# Settings

pair_style table spline 9941

pair_coeff 1 1 ./pgnpmf/N20.txt DE_GNP 75.6
pair_coeff 2 2 ./pgnpmf/N100.txt DE_GNP 115.92
pair_coeff 1 2 ./pgnpmf/mixed_potential.txt DE_GNP 95.66

#Neigh_list Calc Frequency

neigh_modify delay 0 every 1 check yes

# Saving Frequency (50 frames)

variable ts_save equal 5000

# Dump
#dump_modify 1 first no sort id
dump 2 all cfg 50000 ./pgnpmf/6040/equilibration/trajectory/dumpgen.tens_*.cfg mass type xs ys zs fx fy fz
dump_modify 2 element N20 N100

# thermo_style
thermo_style custom step temp press pe density ke etotal lx ly lz xlo xhi ylo yhi zlo zhi vol dt time cpu tpcpu spcpu cpuremain

# run info
timestep 0.1
thermo 10000

# fix

fix 1 all momentum 1000 linear 1 1 1 angular
variable T equal 300
fix 2 all nvt temp 300 370000 100.0

run 200000
Generated 0 of 1 mixed pair_coeff terms from geometric mixing rule
Unused restart file global fix info:
  fix style: npt, fix ID: 5
  update every 1 steps, delay 0 steps, check yes
Step          Temp          Press          PotEng        Density         KinEng         TotEng           Lx             Ly             Lz            Xlo            Xhi            Ylo            Yhi            Zlo            Zhi           Volume           Dt            Time           CPU           T/CPU          S/CPU         CPULeft
46800000   304.87812      0.50535577    -27248463       2.0261769      907.87498     -27247555       627.80746      627.80746      627.80746      1686.0963      2313.9037      1686.0963      2313.9037      1686.0963      2313.9037      2.4744541e+08  0.1            6840000        0              0              0              0
Averages over the last 11 of 21 rows, steps 46900000 to 47000000:
Temp Press PotEng Density KinEng TotEng Lx Ly Lz Xlo Xhi Ylo Yhi Zlo Zhi Volume Dt
278420 2105.22 -2.66453e+07 2.02618 829087 -2.58162e+07 627.807 627.807 627.807 1686.1 2313.9 1686.1 2313.9 1686.1 2313.9 2.47445e+08 0.1
Loop time of 14.2828 on 4 procs for 200000 steps with 1000 atoms

unfix 2

fix 3 all nvt temp 370000 370000 $(100.0*dt) #iso 1.0 1.0 $(1000.0*dt)
fix 3 all nvt temp 370000 370000 10

run 500000
Generated 0 of 1 mixed pair_coeff terms from geometric mixing rule
Step          Temp          Press          PotEng        Density         KinEng         TotEng           Lx             Ly             Lz            Xlo            Xhi            Ylo            Yhi            Zlo            Zhi           Volume           Dt            Time           CPU           T/CPU          S/CPU         CPULeft
47000000   383540.65      2946.8439     -26411520       2.0261769      1142118.6     -25269402       627.80746      627.80746      627.80746      1686.0963      2313.9037      1686.0963      2313.9037      1686.0963      2313.9037      2.4744541e+08  0.1            6860000        0              0              0              0
Averages over the last 26 of 51 rows, steps 47250000 to 47500000:
Temp Press PotEng Density KinEng TotEng Lx Ly Lz Xlo Xhi Ylo Yhi Zlo Zhi Volume Dt
373256 2987.82 -2.62528e+07 2.02618 1.11149e+06 -2.51413e+07 627.807 627.807 627.807 1686.1 2313.9 1686.1 2313.9 1686.1 2313.9 2.47445e+08 0.1
Loop time of 35.3279 on 4 procs for 500000 steps with 1000 atoms

unfix 3

fix 4 all nvt temp 370000 300 $(100.0*dt)
fix 4 all nvt temp 370000 300 10

run 200000
Generated 0 of 1 mixed pair_coeff terms from geometric mixing rule
Step          Temp          Press          PotEng        Density         KinEng         TotEng           Lx             Ly             Lz            Xlo            Xhi            Ylo            Yhi            Zlo            Zhi           Volume           Dt            Time           CPU           T/CPU          S/CPU         CPULeft
47500000   358591.58      2912.696      -26301880       2.0261769      1067824.5     -25234056       627.80746      627.80746      627.80746      1686.0963      2313.9037      1686.0963      2313.9037      1686.0963      2313.9037      2.4744541e+08  0.1            6910000        0              0              0              0
Averages over the last 11 of 21 rows, steps 47600000 to 47700000:
Temp Press PotEng Density KinEng TotEng Lx Ly Lz Xlo Xhi Ylo Yhi Zlo Zhi Volume Dt
93563.5 988.804 -2.69341e+07 2.02618 278616 -2.66555e+07 627.807 627.807 627.807 1686.1 2313.9 1686.1 2313.9 1686.1 2313.9 2.47445e+08 0.1
Loop time of 14.0996 on 4 procs for 200000 steps with 1000 atoms

unfix 4

fix 5 all npt temp 300 300 $(100.0*dt) iso 1.0 1.0 $(1000.0*dt)
fix 5 all npt temp 300 300 10 iso 1.0 1.0 $(1000.0*dt)
fix 5 all npt temp 300 300 10 iso 1.0 1.0 100

run 300000
Generated 0 of 1 mixed pair_coeff terms from geometric mixing rule
Step          Temp          Press          PotEng        Density         KinEng         TotEng           Lx             Ly             Lz            Xlo            Xhi            Ylo            Yhi            Zlo            Zhi           Volume           Dt            Time           CPU           T/CPU          S/CPU         CPULeft
47700000   524.78796      294.66854     -27161128       2.0261769      1562.7289     -27159565       627.80746      627.80746      627.80746      1686.0963      2313.9037      1686.0963      2313.9037      1686.0963      2313.9037      2.4744541e+08  0.1            6930000        0              0              0              0
Averages over the last 16 of 31 rows, steps 47850000 to 48000000:
Temp Press PotEng Density KinEng TotEng Lx Ly Lz Xlo Xhi Ylo Yhi Zlo Zhi Volume Dt
301.012 0.952884 -2.72277e+07 2.02348 896.363 -2.72268e+07 628.086 628.086 628.086 1685.96 2314.04 1685.96 2314.04 1685.96 2314.04 2.47775e+08 0.1
Loop time of 25.1674 on 4 procs for 300000 steps with 1000 atoms

# run_style
run_style verlet

# write restart
write_restart ./pgnpmf/6040/equpmf38.res
System init for write_restart ...
Generated 0 of 1 mixed pair_coeff terms from geometric mixing rule
