LAMMPS (23 Jun 2022 - Update 1)
# Read restart
read_restart ./pgnpmf/28/equpmf10.res
Reading restart file ...
  restart file = 23 Jun 2022, LAMMPS = 23 Jun 2022
  restoring atom style atomic from restart
  orthogonal box = (1856.5835 1856.5835 1856.5835) to (3143.4165 3143.4165 3143.4165)
  restoring pair style table from restart
  1000 atoms
  read_restart CPU = 0.004 seconds

# Settings

pair_style table spline 9941

pair_coeff 1 1 ./pgnpmf/N20.txt DE_GNP 75.6
pair_coeff 2 2 ./pgnpmf/N100.txt DE_GNP 115.92
pair_coeff 1 2 ./pgnpmf/mixed_potential.txt DE_GNP 95.66

#Neigh_list Calc Frequency

neigh_modify delay 0 every 1 check yes

# Saving Frequency (50 frames)

variable ts_save equal 5000

# Dump
#dump_modify 1 first no sort id
dump 2 all cfg 50000 ./pgnpmf/28/equilibration/trajectory/dumpgen.tens_*.cfg mass type xs ys zs fx fy fz
dump_modify 2 element N20 N100

# thermo_style
thermo_style custom step temp press pe density ke etotal lx ly lz xlo xhi ylo yhi zlo zhi vol dt time cpu tpcpu spcpu cpuremain

# run info
timestep 0.5
thermo 200

# fix

fix 1 all momentum 1000 linear 1 1 1 angular
variable T equal 300
fix 2 all nvt temp 300 370000 100.0

run 100000
Generated 0 of 1 mixed pair_coeff terms from geometric mixing rule
Unused restart file global fix info:
  fix style: npt, fix ID: 5
  update every 1 steps, delay 0 steps, check yes
Step          Temp          Press          PotEng        Density         KinEng         TotEng           Lx             Ly             Lz            Xlo            Xhi            Ylo            Yhi            Zlo            Zhi           Volume           Dt            Time           CPU           T/CPU          S/CPU         CPULeft
7410000   310.82297      1.0809873     -24327667       0.29768601     925.57772     -24326741       1286.8329      1286.8329      1286.8329      1856.5835      3143.4165      1856.5835      3143.4165      1856.5835      3143.4165      2.1309168e+09  0.5            3910000        0              0              0              0
Averages over the last 251 of 501 rows, steps 7460000 to 7510000:
Temp Press PotEng Density KinEng TotEng Lx Ly Lz Xlo Xhi Ylo Yhi Zlo Zhi Volume Dt
277039 8.35984 -2.48489e+07 0.297686 824974 -2.4024e+07 1286.83 1286.83 1286.83 1856.58 3143.42 1856.58 3143.42 1856.58 3143.42 2.13092e+09 0.5
Loop time of 4.68932 on 4 procs for 100000 steps with 1000 atoms

unfix 2

fix 3 all nvt temp 370000 370000 $(100.0*dt) #iso 1.0 1.0 $(1000.0*dt)
fix 3 all nvt temp 370000 370000 50

run 200000
Generated 0 of 1 mixed pair_coeff terms from geometric mixing rule
Step          Temp          Press          PotEng        Density         KinEng         TotEng           Lx             Ly             Lz            Xlo            Xhi            Ylo            Yhi            Zlo            Zhi           Volume           Dt            Time           CPU           T/CPU          S/CPU         CPULeft
7510000   370144.73      12.997546     -24643392       0.29768601     1102227.8     -23541164       1286.8329      1286.8329      1286.8329      1856.5835      3143.4165      1856.5835      3143.4165      1856.5835      3143.4165      2.1309168e+09  0.5            3960000        0              0              0              0
Averages over the last 501 of 1001 rows, steps 7610000 to 7710000:
Temp Press PotEng Density KinEng TotEng Lx Ly Lz Xlo Xhi Ylo Yhi Zlo Zhi Volume Dt
370320 5.20425 -2.43918e+07 0.297686 1.10275e+06 -2.32891e+07 1286.83 1286.83 1286.83 1856.58 3143.42 1856.58 3143.42 1856.58 3143.42 2.13092e+09 0.5
Loop time of 9.49944 on 4 procs for 200000 steps with 1000 atoms

unfix 3

fix 4 all nvt temp 370000 300 100.0

run 100000
Generated 0 of 1 mixed pair_coeff terms from geometric mixing rule
Step          Temp          Press          PotEng        Density         KinEng         TotEng           Lx             Ly             Lz            Xlo            Xhi            Ylo            Yhi            Zlo            Zhi           Volume           Dt            Time           CPU           T/CPU          S/CPU         CPULeft
7710000   374098.82      1.8420292     -24753060       0.29768601     1114002.4     -23639058       1286.8329      1286.8329      1286.8329      1856.5835      3143.4165      1856.5835      3143.4165      1856.5835      3143.4165      2.1309168e+09  0.5            4060000        0              0              0              0
Averages over the last 251 of 501 rows, steps 7760000 to 7810000:
Temp Press PotEng Density KinEng TotEng Lx Ly Lz Xlo Xhi Ylo Yhi Zlo Zhi Volume Dt
93051 -33.7992 -2.64581e+07 0.297686 277090 -2.6181e+07 1286.83 1286.83 1286.83 1856.58 3143.42 1856.58 3143.42 1856.58 3143.42 2.13092e+09 0.5
Loop time of 4.69891 on 4 procs for 100000 steps with 1000 atoms

unfix 4

fix 5 all npt temp 300 300 $(100.0*dt) iso 1.0 1.0 $(1000.0*dt)
fix 5 all npt temp 300 300 50 iso 1.0 1.0 $(1000.0*dt)
fix 5 all npt temp 300 300 50 iso 1.0 1.0 500

run 300000
Generated 0 of 1 mixed pair_coeff terms from geometric mixing rule
Step          Temp          Press          PotEng        Density         KinEng         TotEng           Lx             Ly             Lz            Xlo            Xhi            Ylo            Yhi            Zlo            Zhi           Volume           Dt            Time           CPU           T/CPU          S/CPU         CPULeft
7810000   1358.7367     -44.61959      -27024355       0.29768601     4046.0859     -27020309       1286.8329      1286.8329      1286.8329      1856.5835      3143.4165      1856.5835      3143.4165      1856.5835      3143.4165      2.1309168e+09  0.5            4110000        0              0              0              0
Averages over the last 751 of 1501 rows, steps 7960000 to 8110000:
Temp Press PotEng Density KinEng TotEng Lx Ly Lz Xlo Xhi Ylo Yhi Zlo Zhi Volume Dt
312.341 0.994806 -2.7611e+07 0.315245 930.098 -2.76101e+07 1262.5 1262.5 1262.5 1868.75 3131.25 1868.75 3131.25 1868.75 3131.25 2.01234e+09 0.5
Loop time of 18.2106 on 4 procs for 300000 steps with 1000 atoms

# run_style
run_style verlet

# write restart
write_restart ./pgnpmf/28/equpmf11.res
System init for write_restart ...
Generated 0 of 1 mixed pair_coeff terms from geometric mixing rule
