LAMMPS (23 Jun 2022 - Update 1)
# Read restart
read_restart ./pgnpmf/28/equpmf66.res
Reading restart file ...
  restart file = 23 Jun 2022, LAMMPS = 23 Jun 2022
  restoring atom style atomic from restart
  orthogonal box = (2139.7723 2139.7723 2139.7723) to (2860.2277 2860.2277 2860.2277)
  restoring pair style table from restart
  1000 atoms
  read_restart CPU = 0.004 seconds

# Settings

pair_style table spline 9941

pair_coeff 1 1 ./pgnpmf/N20.txt DE_GNP 75.6
pair_coeff 2 2 ./pgnpmf/N100.txt DE_GNP 115.92
pair_coeff 1 2 ./pgnpmf/mixed_potential.txt DE_GNP 95.66

#Neigh_list Calc Frequency

neigh_modify delay 0 every 1 check yes

# Saving Frequency (50 frames)

variable ts_save equal 5000

# Dump
#dump_modify 1 first no sort id
dump 2 all cfg 50000 ./pgnpmf/28/equilibration/trajectory/dumpgen.tens_*.cfg mass type xs ys zs fx fy fz
dump_modify 2 element N20 N100

# thermo_style
thermo_style custom step temp press pe density ke etotal lx ly lz xlo xhi ylo yhi zlo zhi vol dt time cpu tpcpu spcpu cpuremain

# run info
timestep 0.5
thermo 200

# fix

fix 1 all momentum 1000 linear 1 1 1 angular
variable T equal 300
fix 2 all nvt temp 300 370000 100.0

run 100000
Generated 0 of 1 mixed pair_coeff terms from geometric mixing rule
Unused restart file global fix info:
  fix style: npt, fix ID: 5
  update every 1 steps, delay 0 steps, check yes
Step          Temp          Press          PotEng        Density         KinEng         TotEng           Lx             Ly             Lz            Xlo            Xhi            Ylo            Yhi            Zlo            Zhi           Volume           Dt            Time           CPU           T/CPU          S/CPU         CPULeft
46610000   289.91909      1.6368263     -50626149       1.6963037      863.32955     -50625286       720.4554       720.4554       720.4554       2139.7723      2860.2277      2139.7723      2860.2277      2139.7723      2860.2277      3.7395669e+08  0.5            23510000       0              0              0              0
Averages over the last 251 of 501 rows, steps 46660000 to 46710000:
Temp Press PotEng Density KinEng TotEng Lx Ly Lz Xlo Xhi Ylo Yhi Zlo Zhi Volume Dt
277644 1742.52 -4.98015e+07 1.6963 826776 -4.89747e+07 720.455 720.455 720.455 2139.77 2860.23 2139.77 2860.23 2139.77 2860.23 3.73957e+08 0.5
Loop time of 9.11489 on 4 procs for 100000 steps with 1000 atoms

unfix 2

fix 3 all nvt temp 370000 370000 $(100.0*dt) #iso 1.0 1.0 $(1000.0*dt)
fix 3 all nvt temp 370000 370000 50

run 200000
Generated 0 of 1 mixed pair_coeff terms from geometric mixing rule
Step          Temp          Press          PotEng        Density         KinEng         TotEng           Lx             Ly             Lz            Xlo            Xhi            Ylo            Yhi            Zlo            Zhi           Volume           Dt            Time           CPU           T/CPU          S/CPU         CPULeft
46710000   356604.61      1947.7418     -49621648       1.6963037      1061907.6     -48559740       720.4554       720.4554       720.4554       2139.7723      2860.2277      2139.7723      2860.2277      2139.7723      2860.2277      3.7395669e+08  0.5            23560000       0              0              0              0
Averages over the last 501 of 1001 rows, steps 46810000 to 46910000:
Temp Press PotEng Density KinEng TotEng Lx Ly Lz Xlo Xhi Ylo Yhi Zlo Zhi Volume Dt
370054 2034.51 -4.95317e+07 1.6963 1.10196e+06 -4.84298e+07 720.455 720.455 720.455 2139.77 2860.23 2139.77 2860.23 2139.77 2860.23 3.73957e+08 0.5
Loop time of 18.1474 on 4 procs for 200000 steps with 1000 atoms

unfix 3

fix 4 all nvt temp 370000 300 100.0

run 100000
Generated 0 of 1 mixed pair_coeff terms from geometric mixing rule
Step          Temp          Press          PotEng        Density         KinEng         TotEng           Lx             Ly             Lz            Xlo            Xhi            Ylo            Yhi            Zlo            Zhi           Volume           Dt            Time           CPU           T/CPU          S/CPU         CPULeft
46910000   367340.82      2050.1963     -49411652       1.6963037      1093878.2     -48317774       720.4554       720.4554       720.4554       2139.7723      2860.2277      2139.7723      2860.2277      2139.7723      2860.2277      3.7395669e+08  0.5            23660000       0              0              0              0
Averages over the last 251 of 501 rows, steps 46960000 to 47010000:
Temp Press PotEng Density KinEng TotEng Lx Ly Lz Xlo Xhi Ylo Yhi Zlo Zhi Volume Dt
93086.1 513.764 -5.03229e+07 1.6963 277195 -5.00457e+07 720.455 720.455 720.455 2139.77 2860.23 2139.77 2860.23 2139.77 2860.23 3.73957e+08 0.5
Loop time of 8.93387 on 4 procs for 100000 steps with 1000 atoms

unfix 4

fix 5 all npt temp 300 300 $(100.0*dt) iso 1.0 1.0 $(1000.0*dt)
fix 5 all npt temp 300 300 50 iso 1.0 1.0 $(1000.0*dt)
fix 5 all npt temp 300 300 50 iso 1.0 1.0 500

run 300000
Generated 0 of 1 mixed pair_coeff terms from geometric mixing rule
Step          Temp          Press          PotEng        Density         KinEng         TotEng           Lx             Ly             Lz            Xlo            Xhi            Ylo            Yhi            Zlo            Zhi           Volume           Dt            Time           CPU           T/CPU          S/CPU         CPULeft
47010000   1380.5561      48.437867     -50616636       1.6963037      4111.0603     -50612525       720.4554       720.4554       720.4554       2139.7723      2860.2277      2139.7723      2860.2277      2139.7723      2860.2277      3.7395669e+08  0.5            23710000       0              0              0              0
Averages over the last 751 of 1501 rows, steps 47160000 to 47310000:
Temp Press PotEng Density KinEng TotEng Lx Ly Lz Xlo Xhi Ylo Yhi Zlo Zhi Volume Dt
300.296 0.974948 -5.06112e+07 1.69612 894.229 -5.06103e+07 720.482 720.482 720.482 2139.76 2860.24 2139.76 2860.24 2139.76 2860.24 3.73997e+08 0.5
Loop time of 30.5989 on 4 procs for 300000 steps with 1000 atoms

# run_style
run_style verlet

# write restart
write_restart ./pgnpmf/28/equpmf67.res
System init for write_restart ...
Generated 0 of 1 mixed pair_coeff terms from geometric mixing rule
