LAMMPS (23 Jun 2022 - Update 1)
# Read restart
read_restart ./pgnpmf/28/equpmf67.res
Reading restart file ...
  restart file = 23 Jun 2022, LAMMPS = 23 Jun 2022
  restoring atom style atomic from restart
  orthogonal box = (2139.7452 2139.7452 2139.7452) to (2860.2548 2860.2548 2860.2548)
  restoring pair style table from restart
  1000 atoms
  read_restart CPU = 0.004 seconds

# Settings

pair_style table spline 9941

pair_coeff 1 1 ./pgnpmf/N20.txt DE_GNP 75.6
pair_coeff 2 2 ./pgnpmf/N100.txt DE_GNP 115.92
pair_coeff 1 2 ./pgnpmf/mixed_potential.txt DE_GNP 95.66

#Neigh_list Calc Frequency

neigh_modify delay 0 every 1 check yes

# Saving Frequency (50 frames)

variable ts_save equal 5000

# Dump
#dump_modify 1 first no sort id
dump 2 all cfg 50000 ./pgnpmf/28/equilibration/trajectory/dumpgen.tens_*.cfg mass type xs ys zs fx fy fz
dump_modify 2 element N20 N100

# thermo_style
thermo_style custom step temp press pe density ke etotal lx ly lz xlo xhi ylo yhi zlo zhi vol dt time cpu tpcpu spcpu cpuremain

# run info
timestep 0.5
thermo 200

# fix

fix 1 all momentum 1000 linear 1 1 1 angular
variable T equal 300
fix 2 all nvt temp 300 370000 100.0

run 100000
Generated 0 of 1 mixed pair_coeff terms from geometric mixing rule
Unused restart file global fix info:
  fix style: npt, fix ID: 5
  update every 1 steps, delay 0 steps, check yes
Step          Temp          Press          PotEng        Density         KinEng         TotEng           Lx             Ly             Lz            Xlo            Xhi            Ylo            Yhi            Zlo            Zhi           Volume           Dt            Time           CPU           T/CPU          S/CPU         CPULeft
47310000   291.99168      4.5462929     -50575757       1.6959215      869.50138     -50574888       720.50952      720.50952      720.50952      2139.7452      2860.2548      2139.7452      2860.2548      2139.7452      2860.2548      3.7404097e+08  0.5            23860000       0              0              0              0
Averages over the last 251 of 501 rows, steps 47360000 to 47410000:
Temp Press PotEng Density KinEng TotEng Lx Ly Lz Xlo Xhi Ylo Yhi Zlo Zhi Volume Dt
277361 1708.22 -4.96739e+07 1.69592 825934 -4.8848e+07 720.51 720.51 720.51 2139.75 2860.25 2139.75 2860.25 2139.75 2860.25 3.74041e+08 0.5
Loop time of 9.06342 on 4 procs for 100000 steps with 1000 atoms

unfix 2

fix 3 all nvt temp 370000 370000 $(100.0*dt) #iso 1.0 1.0 $(1000.0*dt)
fix 3 all nvt temp 370000 370000 50

run 200000
Generated 0 of 1 mixed pair_coeff terms from geometric mixing rule
Step          Temp          Press          PotEng        Density         KinEng         TotEng           Lx             Ly             Lz            Xlo            Xhi            Ylo            Yhi            Zlo            Zhi           Volume           Dt            Time           CPU           T/CPU          S/CPU         CPULeft
47410000   388191.53      2063.1311     -49341329       1.6959215      1155968.1     -48185361       720.50952      720.50952      720.50952      2139.7452      2860.2548      2139.7452      2860.2548      2139.7452      2860.2548      3.7404097e+08  0.5            23910000       0              0              0              0
Averages over the last 501 of 1001 rows, steps 47510000 to 47610000:
Temp Press PotEng Density KinEng TotEng Lx Ly Lz Xlo Xhi Ylo Yhi Zlo Zhi Volume Dt
370355 2031.18 -4.95605e+07 1.69592 1.10286e+06 -4.84576e+07 720.51 720.51 720.51 2139.75 2860.25 2139.75 2860.25 2139.75 2860.25 3.74041e+08 0.5
Loop time of 18.1369 on 4 procs for 200000 steps with 1000 atoms

unfix 3

fix 4 all nvt temp 370000 300 100.0

run 100000
Generated 0 of 1 mixed pair_coeff terms from geometric mixing rule
Step          Temp          Press          PotEng        Density         KinEng         TotEng           Lx             Ly             Lz            Xlo            Xhi            Ylo            Yhi            Zlo            Zhi           Volume           Dt            Time           CPU           T/CPU          S/CPU         CPULeft
47610000   370339.12      1950.5679     -49592405       1.6959215      1102806.7     -48489599       720.50952      720.50952      720.50952      2139.7452      2860.2548      2139.7452      2860.2548      2139.7452      2860.2548      3.7404097e+08  0.5            24010000       0              0              0              0
Averages over the last 251 of 501 rows, steps 47660000 to 47710000:
Temp Press PotEng Density KinEng TotEng Lx Ly Lz Xlo Xhi Ylo Yhi Zlo Zhi Volume Dt
92989.1 486.683 -5.01852e+07 1.69592 276906 -4.99083e+07 720.51 720.51 720.51 2139.75 2860.25 2139.75 2860.25 2139.75 2860.25 3.74041e+08 0.5
Loop time of 8.86503 on 4 procs for 100000 steps with 1000 atoms

unfix 4

fix 5 all npt temp 300 300 $(100.0*dt) iso 1.0 1.0 $(1000.0*dt)
fix 5 all npt temp 300 300 50 iso 1.0 1.0 $(1000.0*dt)
fix 5 all npt temp 300 300 50 iso 1.0 1.0 500

run 300000
Generated 0 of 1 mixed pair_coeff terms from geometric mixing rule
Step          Temp          Press          PotEng        Density         KinEng         TotEng           Lx             Ly             Lz            Xlo            Xhi            Ylo            Yhi            Zlo            Zhi           Volume           Dt            Time           CPU           T/CPU          S/CPU         CPULeft
47710000   1378.4734      30.502469     -50437427       1.6959215      4104.8584     -50433322       720.50952      720.50952      720.50952      2139.7452      2860.2548      2139.7452      2860.2548      2139.7452      2860.2548      3.7404097e+08  0.5            24060000       0              0              0              0
Averages over the last 751 of 1501 rows, steps 47860000 to 48010000:
Temp Press PotEng Density KinEng TotEng Lx Ly Lz Xlo Xhi Ylo Yhi Zlo Zhi Volume Dt
300.113 1.03507 -5.05651e+07 1.69652 893.685 -5.05642e+07 720.425 720.425 720.425 2139.79 2860.21 2139.79 2860.21 2139.79 2860.21 3.73909e+08 0.5
Loop time of 30.234 on 4 procs for 300000 steps with 1000 atoms

# run_style
run_style verlet

# write restart
write_restart ./pgnpmf/28/equpmf68.res
System init for write_restart ...
Generated 0 of 1 mixed pair_coeff terms from geometric mixing rule
