LAMMPS (23 Jun 2022 - Update 1)
# Read restart
read_restart ./pgnpmf/28/equpmf9.res
Reading restart file ...
  restart file = 23 Jun 2022, LAMMPS = 23 Jun 2022
  restoring atom style atomic from restart
  orthogonal box = (1838.6983 1838.6983 1838.6983) to (3161.3017 3161.3017 3161.3017)
  restoring pair style table from restart
  1000 atoms
  read_restart CPU = 0.004 seconds

# Settings

pair_style table spline 9941

pair_coeff 1 1 ./pgnpmf/N20.txt DE_GNP 75.6
pair_coeff 2 2 ./pgnpmf/N100.txt DE_GNP 115.92
pair_coeff 1 2 ./pgnpmf/mixed_potential.txt DE_GNP 95.66

#Neigh_list Calc Frequency

neigh_modify delay 0 every 1 check yes

# Saving Frequency (50 frames)

variable ts_save equal 5000

# Dump
#dump_modify 1 first no sort id
dump 2 all cfg 50000 ./pgnpmf/28/equilibration/trajectory/dumpgen.tens_*.cfg mass type xs ys zs fx fy fz
dump_modify 2 element N20 N100

# thermo_style
thermo_style custom step temp press pe density ke etotal lx ly lz xlo xhi ylo yhi zlo zhi vol dt time cpu tpcpu spcpu cpuremain

# run info
timestep 0.5
thermo 200

# fix

fix 1 all momentum 1000 linear 1 1 1 angular
variable T equal 300
fix 2 all nvt temp 300 370000 100.0

run 100000
Generated 0 of 1 mixed pair_coeff terms from geometric mixing rule
Unused restart file global fix info:
  fix style: npt, fix ID: 5
  update every 1 steps, delay 0 steps, check yes
Step          Temp          Press          PotEng        Density         KinEng         TotEng           Lx             Ly             Lz            Xlo            Xhi            Ylo            Yhi            Zlo            Zhi           Volume           Dt            Time           CPU           T/CPU          S/CPU         CPULeft
6710000   313.00815      1.2212561     -21357365       0.27418022     932.08483     -21356433       1322.6033      1322.6033      1322.6033      1838.6983      3161.3017      1838.6983      3161.3017      1838.6983      3161.3017      2.3136029e+09  0.5            3560000        0              0              0              0
Averages over the last 251 of 501 rows, steps 6760000 to 6810000:
Temp Press PotEng Density KinEng TotEng Lx Ly Lz Xlo Xhi Ylo Yhi Zlo Zhi Volume Dt
277376 9.49565 -2.17786e+07 0.27418 825979 -2.09526e+07 1322.6 1322.6 1322.6 1838.7 3161.3 1838.7 3161.3 1838.7 3161.3 2.3136e+09 0.5
Loop time of 4.89192 on 4 procs for 100000 steps with 1000 atoms

unfix 2

fix 3 all nvt temp 370000 370000 $(100.0*dt) #iso 1.0 1.0 $(1000.0*dt)
fix 3 all nvt temp 370000 370000 50

run 200000
Generated 0 of 1 mixed pair_coeff terms from geometric mixing rule
Step          Temp          Press          PotEng        Density         KinEng         TotEng           Lx             Ly             Lz            Xlo            Xhi            Ylo            Yhi            Zlo            Zhi           Volume           Dt            Time           CPU           T/CPU          S/CPU         CPULeft
6810000   370727.68      23.311083     -21540879       0.27418022     1103963.7     -20436915       1322.6033      1322.6033      1322.6033      1838.6983      3161.3017      1838.6983      3161.3017      1838.6983      3161.3017      2.3136029e+09  0.5            3610000        0              0              0              0
Averages over the last 501 of 1001 rows, steps 6910000 to 7010000:
Temp Press PotEng Density KinEng TotEng Lx Ly Lz Xlo Xhi Ylo Yhi Zlo Zhi Volume Dt
370043 1.95333 -2.11533e+07 0.27418 1.10193e+06 -2.00514e+07 1322.6 1322.6 1322.6 1838.7 3161.3 1838.7 3161.3 1838.7 3161.3 2.3136e+09 0.5
Loop time of 10.0937 on 4 procs for 200000 steps with 1000 atoms

unfix 3

fix 4 all nvt temp 370000 300 100.0

run 100000
Generated 0 of 1 mixed pair_coeff terms from geometric mixing rule
Step          Temp          Press          PotEng        Density         KinEng         TotEng           Lx             Ly             Lz            Xlo            Xhi            Ylo            Yhi            Zlo            Zhi           Volume           Dt            Time           CPU           T/CPU          S/CPU         CPULeft
7010000   366451.29     -10.030305     -21301312       0.27418022     1091229.4     -20210082       1322.6033      1322.6033      1322.6033      1838.6983      3161.3017      1838.6983      3161.3017      1838.6983      3161.3017      2.3136029e+09  0.5            3710000        0              0              0              0
Averages over the last 251 of 501 rows, steps 7060000 to 7110000:
Temp Press PotEng Density KinEng TotEng Lx Ly Lz Xlo Xhi Ylo Yhi Zlo Zhi Volume Dt
93334.5 -28.5565 -2.30969e+07 0.27418 277934 -2.2819e+07 1322.6 1322.6 1322.6 1838.7 3161.3 1838.7 3161.3 1838.7 3161.3 2.3136e+09 0.5
Loop time of 5.14985 on 4 procs for 100000 steps with 1000 atoms

unfix 4

fix 5 all npt temp 300 300 $(100.0*dt) iso 1.0 1.0 $(1000.0*dt)
fix 5 all npt temp 300 300 50 iso 1.0 1.0 $(1000.0*dt)
fix 5 all npt temp 300 300 50 iso 1.0 1.0 500

run 300000
Generated 0 of 1 mixed pair_coeff terms from geometric mixing rule
Step          Temp          Press          PotEng        Density         KinEng         TotEng           Lx             Ly             Lz            Xlo            Xhi            Ylo            Yhi            Zlo            Zhi           Volume           Dt            Time           CPU           T/CPU          S/CPU         CPULeft
7110000   1360.4725     -32.399899     -23727644       0.27418022     4051.2549     -23723592       1322.6033      1322.6033      1322.6033      1838.6983      3161.3017      1838.6983      3161.3017      1838.6983      3161.3017      2.3136029e+09  0.5            3760000        0              0              0              0
Averages over the last 751 of 1501 rows, steps 7260000 to 7410000:
Temp Press PotEng Density KinEng TotEng Lx Ly Lz Xlo Xhi Ylo Yhi Zlo Zhi Volume Dt
311.912 1.00098 -2.41995e+07 0.293275 928.82 -2.41986e+07 1293.28 1293.28 1293.28 1853.36 3146.64 1853.36 3146.64 1853.36 3146.64 2.16315e+09 0.5
Loop time of 19.3822 on 4 procs for 300000 steps with 1000 atoms

# run_style
run_style verlet

# write restart
write_restart ./pgnpmf/28/equpmf10.res
System init for write_restart ...
Generated 0 of 1 mixed pair_coeff terms from geometric mixing rule
