LAMMPS (23 Jun 2022 - Update 1)
# Read restart
read_restart ./pgnpmf/28/equpmf52.res
Reading restart file ...
  restart file = 23 Jun 2022, LAMMPS = 23 Jun 2022
  restoring atom style atomic from restart
  orthogonal box = (2130.5645 2130.5645 2130.5645) to (2869.4355 2869.4355 2869.4355)
  restoring pair style table from restart
  1000 atoms
  read_restart CPU = 0.005 seconds

# Settings

pair_style table spline 9941

pair_coeff 1 1 ./pgnpmf/N20.txt DE_GNP 75.6
pair_coeff 2 2 ./pgnpmf/N100.txt DE_GNP 115.92
pair_coeff 1 2 ./pgnpmf/mixed_potential.txt DE_GNP 95.66

#Neigh_list Calc Frequency

neigh_modify delay 0 every 1 check yes

# Saving Frequency (50 frames)

variable ts_save equal 5000

# Dump
#dump_modify 1 first no sort id
dump 2 all cfg 50000 ./pgnpmf/28/equilibration/trajectory/dumpgen.tens_*.cfg mass type xs ys zs fx fy fz
dump_modify 2 element N20 N100

# thermo_style
thermo_style custom step temp press pe density ke etotal lx ly lz xlo xhi ylo yhi zlo zhi vol dt time cpu tpcpu spcpu cpuremain

# run info
timestep 0.5
thermo 200

# fix

fix 1 all momentum 1000 linear 1 1 1 angular
variable T equal 300
fix 2 all nvt temp 300 370000 100.0

run 100000
Generated 0 of 1 mixed pair_coeff terms from geometric mixing rule
Unused restart file global fix info:
  fix style: npt, fix ID: 5
  update every 1 steps, delay 0 steps, check yes
Step          Temp          Press          PotEng        Density         KinEng         TotEng           Lx             Ly             Lz            Xlo            Xhi            Ylo            Yhi            Zlo            Zhi           Volume           Dt            Time           CPU           T/CPU          S/CPU         CPULeft
36810000   306.1569       4.2242654     -48363277       1.5726034      911.68296     -48362365       738.87091      738.87091      738.87091      2130.5645      2869.4355      2130.5645      2869.4355      2130.5645      2869.4355      4.0337196e+08  0.5            18610000       0              0              0              0
Averages over the last 251 of 501 rows, steps 36860000 to 36910000:
Temp Press PotEng Density KinEng TotEng Lx Ly Lz Xlo Xhi Ylo Yhi Zlo Zhi Volume Dt
277354 874.812 -4.80706e+07 1.5726 825912 -4.72447e+07 738.871 738.871 738.871 2130.56 2869.44 2130.56 2869.44 2130.56 2869.44 4.03372e+08 0.5
Loop time of 8.54882 on 4 procs for 100000 steps with 1000 atoms

unfix 2

fix 3 all nvt temp 370000 370000 $(100.0*dt) #iso 1.0 1.0 $(1000.0*dt)
fix 3 all nvt temp 370000 370000 50

run 200000
Generated 0 of 1 mixed pair_coeff terms from geometric mixing rule
Step          Temp          Press          PotEng        Density         KinEng         TotEng           Lx             Ly             Lz            Xlo            Xhi            Ylo            Yhi            Zlo            Zhi           Volume           Dt            Time           CPU           T/CPU          S/CPU         CPULeft
36910000   361068.52      1234.0259     -47713391       1.5726034      1075200.4     -46638190       738.87091      738.87091      738.87091      2130.5645      2869.4355      2130.5645      2869.4355      2130.5645      2869.4355      4.0337196e+08  0.5            18660000       0              0              0              0
Averages over the last 501 of 1001 rows, steps 37010000 to 37110000:
Temp Press PotEng Density KinEng TotEng Lx Ly Lz Xlo Xhi Ylo Yhi Zlo Zhi Volume Dt
370085 707.036 -4.76074e+07 1.5726 1.10205e+06 -4.65054e+07 738.871 738.871 738.871 2130.56 2869.44 2130.56 2869.44 2130.56 2869.44 4.03372e+08 0.5
Loop time of 17.011 on 4 procs for 200000 steps with 1000 atoms

unfix 3

fix 4 all nvt temp 370000 300 100.0

run 100000
Generated 0 of 1 mixed pair_coeff terms from geometric mixing rule
Step          Temp          Press          PotEng        Density         KinEng         TotEng           Lx             Ly             Lz            Xlo            Xhi            Ylo            Yhi            Zlo            Zhi           Volume           Dt            Time           CPU           T/CPU          S/CPU         CPULeft
37110000   358641.02      666.05073     -47696517       1.5726034      1067971.7     -46628545       738.87091      738.87091      738.87091      2130.5645      2869.4355      2130.5645      2869.4355      2130.5645      2869.4355      4.0337196e+08  0.5            18760000       0              0              0              0
Averages over the last 251 of 501 rows, steps 37160000 to 37210000:
Temp Press PotEng Density KinEng TotEng Lx Ly Lz Xlo Xhi Ylo Yhi Zlo Zhi Volume Dt
93049.8 -729.408 -4.82015e+07 1.5726 277086 -4.79244e+07 738.871 738.871 738.871 2130.56 2869.44 2130.56 2869.44 2130.56 2869.44 4.03372e+08 0.5
Loop time of 8.43299 on 4 procs for 100000 steps with 1000 atoms

unfix 4

fix 5 all npt temp 300 300 $(100.0*dt) iso 1.0 1.0 $(1000.0*dt)
fix 5 all npt temp 300 300 50 iso 1.0 1.0 $(1000.0*dt)
fix 5 all npt temp 300 300 50 iso 1.0 1.0 500

run 300000
Generated 0 of 1 mixed pair_coeff terms from geometric mixing rule
Step          Temp          Press          PotEng        Density         KinEng         TotEng           Lx             Ly             Lz            Xlo            Xhi            Ylo            Yhi            Zlo            Zhi           Volume           Dt            Time           CPU           T/CPU          S/CPU         CPULeft
37210000   1362.0943     -1161.5594     -48489555       1.5726034      4056.0843     -48485499       738.87091      738.87091      738.87091      2130.5645      2869.4355      2130.5645      2869.4355      2130.5645      2869.4355      4.0337196e+08  0.5            18810000       0              0              0              0
Averages over the last 751 of 1501 rows, steps 37360000 to 37510000:
Temp Press PotEng Density KinEng TotEng Lx Ly Lz Xlo Xhi Ylo Yhi Zlo Zhi Volume Dt
304.49 0.911261 -4.93538e+07 1.62947 906.72 -4.93529e+07 730.174 730.174 730.174 2134.91 2865.09 2134.91 2865.09 2134.91 2865.09 3.89296e+08 0.5
Loop time of 29.4265 on 4 procs for 300000 steps with 1000 atoms

# run_style
run_style verlet

# write restart
write_restart ./pgnpmf/28/equpmf53.res
System init for write_restart ...
Generated 0 of 1 mixed pair_coeff terms from geometric mixing rule
