LAMMPS (23 Jun 2022 - Update 1)
# Read restart
read_restart ./pgnpmf/28/equpmf25.res
Reading restart file ...
  restart file = 23 Jun 2022, LAMMPS = 23 Jun 2022
  restoring atom style atomic from restart
  orthogonal box = (1968.1018 1968.1018 1968.1018) to (3031.8982 3031.8982 3031.8982)
  restoring pair style table from restart
  1000 atoms
  read_restart CPU = 0.004 seconds

# Settings

pair_style table spline 9941

pair_coeff 1 1 ./pgnpmf/N20.txt DE_GNP 75.6
pair_coeff 2 2 ./pgnpmf/N100.txt DE_GNP 115.92
pair_coeff 1 2 ./pgnpmf/mixed_potential.txt DE_GNP 95.66

#Neigh_list Calc Frequency

neigh_modify delay 0 every 1 check yes

# Saving Frequency (50 frames)

variable ts_save equal 5000

# Dump
#dump_modify 1 first no sort id
dump 2 all cfg 50000 ./pgnpmf/28/equilibration/trajectory/dumpgen.tens_*.cfg mass type xs ys zs fx fy fz
dump_modify 2 element N20 N100

# thermo_style
thermo_style custom step temp press pe density ke etotal lx ly lz xlo xhi ylo yhi zlo zhi vol dt time cpu tpcpu spcpu cpuremain

# run info
timestep 0.5
thermo 200

# fix

fix 1 all momentum 1000 linear 1 1 1 angular
variable T equal 300
fix 2 all nvt temp 300 370000 100.0

run 100000
Generated 0 of 1 mixed pair_coeff terms from geometric mixing rule
Unused restart file global fix info:
  fix style: npt, fix ID: 5
  update every 1 steps, delay 0 steps, check yes
Step          Temp          Press          PotEng        Density         KinEng         TotEng           Lx             Ly             Lz            Xlo            Xhi            Ylo            Yhi            Zlo            Zhi           Volume           Dt            Time           CPU           T/CPU          S/CPU         CPULeft
17910000   308.61214      0.18905479    -38671036       0.52692559     918.99425     -38670117       1063.7965      1063.7965      1063.7965      1968.1018      3031.8982      1968.1018      3031.8982      1968.1018      3031.8982      1.203859e+09   0.5            9160000        0              0              0              0
Averages over the last 251 of 501 rows, steps 17960000 to 18010000:
Temp Press PotEng Density KinEng TotEng Lx Ly Lz Xlo Xhi Ylo Yhi Zlo Zhi Volume Dt
277726 49.7824 -3.8335e+07 0.526926 827019 -3.75079e+07 1063.8 1063.8 1063.8 1968.1 3031.9 1968.1 3031.9 1968.1 3031.9 1.20386e+09 0.5
Loop time of 10.2475 on 4 procs for 100000 steps with 1000 atoms

unfix 2

fix 3 all nvt temp 370000 370000 $(100.0*dt) #iso 1.0 1.0 $(1000.0*dt)
fix 3 all nvt temp 370000 370000 50

run 200000
Generated 0 of 1 mixed pair_coeff terms from geometric mixing rule
Step          Temp          Press          PotEng        Density         KinEng         TotEng           Lx             Ly             Lz            Xlo            Xhi            Ylo            Yhi            Zlo            Zhi           Volume           Dt            Time           CPU           T/CPU          S/CPU         CPULeft
18010000   375067.13      5.2467095     -37667709       0.52692559     1116885.9     -36550823       1063.7965      1063.7965      1063.7965      1968.1018      3031.8982      1968.1018      3031.8982      1968.1018      3031.8982      1.203859e+09   0.5            9210000        0              0              0              0
Averages over the last 501 of 1001 rows, steps 18110000 to 18210000:
Temp Press PotEng Density KinEng TotEng Lx Ly Lz Xlo Xhi Ylo Yhi Zlo Zhi Volume Dt
370021 7.45703 -3.66221e+07 0.526926 1.10186e+06 -3.55203e+07 1063.8 1063.8 1063.8 1968.1 3031.9 1968.1 3031.9 1968.1 3031.9 1.20386e+09 0.5
Loop time of 20.4698 on 4 procs for 200000 steps with 1000 atoms

unfix 3

fix 4 all nvt temp 370000 300 100.0

run 100000
Generated 0 of 1 mixed pair_coeff terms from geometric mixing rule
Step          Temp          Press          PotEng        Density         KinEng         TotEng           Lx             Ly             Lz            Xlo            Xhi            Ylo            Yhi            Zlo            Zhi           Volume           Dt            Time           CPU           T/CPU          S/CPU         CPULeft
18210000   373999.72      13.82429      -36655304       0.52692559     1113707.3     -35541597       1063.7965      1063.7965      1063.7965      1968.1018      3031.8982      1968.1018      3031.8982      1968.1018      3031.8982      1.203859e+09   0.5            9310000        0              0              0              0
Averages over the last 251 of 501 rows, steps 18260000 to 18310000:
Temp Press PotEng Density KinEng TotEng Lx Ly Lz Xlo Xhi Ylo Yhi Zlo Zhi Volume Dt
93034.8 -89.9619 -3.82575e+07 0.526926 277042 -3.79804e+07 1063.8 1063.8 1063.8 1968.1 3031.9 1968.1 3031.9 1968.1 3031.9 1.20386e+09 0.5
Loop time of 10.1386 on 4 procs for 100000 steps with 1000 atoms

unfix 4

fix 5 all npt temp 300 300 $(100.0*dt) iso 1.0 1.0 $(1000.0*dt)
fix 5 all npt temp 300 300 50 iso 1.0 1.0 $(1000.0*dt)
fix 5 all npt temp 300 300 50 iso 1.0 1.0 500

run 300000
Generated 0 of 1 mixed pair_coeff terms from geometric mixing rule
Step          Temp          Press          PotEng        Density         KinEng         TotEng           Lx             Ly             Lz            Xlo            Xhi            Ylo            Yhi            Zlo            Zhi           Volume           Dt            Time           CPU           T/CPU          S/CPU         CPULeft
18310000   1351.9        -100.04088     -38821301       0.52692559     4025.7273     -38817275       1063.7965      1063.7965      1063.7965      1968.1018      3031.8982      1968.1018      3031.8982      1968.1018      3031.8982      1.203859e+09   0.5            9360000        0              0              0              0
Averages over the last 751 of 1501 rows, steps 18460000 to 18610000:
Temp Press PotEng Density KinEng TotEng Lx Ly Lz Xlo Xhi Ylo Yhi Zlo Zhi Volume Dt
307.26 1.02781 -3.9237e+07 0.5394 914.968 -3.92361e+07 1055.53 1055.53 1055.53 1972.23 3027.77 1972.23 3027.77 1972.23 3027.77 1.17602e+09 0.5
Loop time of 35.4604 on 4 procs for 300000 steps with 1000 atoms

# run_style
run_style verlet

# write restart
write_restart ./pgnpmf/28/equpmf26.res
System init for write_restart ...
Generated 0 of 1 mixed pair_coeff terms from geometric mixing rule
