LAMMPS (23 Jun 2022 - Update 1)
# Read restart
read_restart ./pgnpmf/28/equpmf26.res
Reading restart file ...
  restart file = 23 Jun 2022, LAMMPS = 23 Jun 2022
  restoring atom style atomic from restart
  orthogonal box = (1972.903 1972.903 1972.903) to (3027.097 3027.097 3027.097)
  restoring pair style table from restart
  1000 atoms
  read_restart CPU = 0.004 seconds

# Settings

pair_style table spline 9941

pair_coeff 1 1 ./pgnpmf/N20.txt DE_GNP 75.6
pair_coeff 2 2 ./pgnpmf/N100.txt DE_GNP 115.92
pair_coeff 1 2 ./pgnpmf/mixed_potential.txt DE_GNP 95.66

#Neigh_list Calc Frequency

neigh_modify delay 0 every 1 check yes

# Saving Frequency (50 frames)

variable ts_save equal 5000

# Dump
#dump_modify 1 first no sort id
dump 2 all cfg 50000 ./pgnpmf/28/equilibration/trajectory/dumpgen.tens_*.cfg mass type xs ys zs fx fy fz
dump_modify 2 element N20 N100

# thermo_style
thermo_style custom step temp press pe density ke etotal lx ly lz xlo xhi ylo yhi zlo zhi vol dt time cpu tpcpu spcpu cpuremain

# run info
timestep 0.5
thermo 200

# fix

fix 1 all momentum 1000 linear 1 1 1 angular
variable T equal 300
fix 2 all nvt temp 300 370000 100.0

run 100000
Generated 0 of 1 mixed pair_coeff terms from geometric mixing rule
Unused restart file global fix info:
  fix style: npt, fix ID: 5
  update every 1 steps, delay 0 steps, check yes
Step          Temp          Press          PotEng        Density         KinEng         TotEng           Lx             Ly             Lz            Xlo            Xhi            Ylo            Yhi            Zlo            Zhi           Volume           Dt            Time           CPU           T/CPU          S/CPU         CPULeft
18610000   306.61489     -0.38369483    -39322995       0.54145607     913.04678     -39322082       1054.1941      1054.1941      1054.1941      1972.903       3027.097       1972.903       3027.097       1972.903       3027.097       1.1715524e+09  0.5            9510000        0              0              0              0
Averages over the last 251 of 501 rows, steps 18660000 to 18710000:
Temp Press PotEng Density KinEng TotEng Lx Ly Lz Xlo Xhi Ylo Yhi Zlo Zhi Volume Dt
277496 45.9924 -3.87897e+07 0.541456 826336 -3.79633e+07 1054.19 1054.19 1054.19 1972.9 3027.1 1972.9 3027.1 1972.9 3027.1 1.17155e+09 0.5
Loop time of 10.2462 on 4 procs for 100000 steps with 1000 atoms

unfix 2

fix 3 all nvt temp 370000 370000 $(100.0*dt) #iso 1.0 1.0 $(1000.0*dt)
fix 3 all nvt temp 370000 370000 50

run 200000
Generated 0 of 1 mixed pair_coeff terms from geometric mixing rule
Step          Temp          Press          PotEng        Density         KinEng         TotEng           Lx             Ly             Lz            Xlo            Xhi            Ylo            Yhi            Zlo            Zhi           Volume           Dt            Time           CPU           T/CPU          S/CPU         CPULeft
18710000   344110.09      19.811394     -38144037       0.54145607     1024701.1     -37119335       1054.1941      1054.1941      1054.1941      1972.903       3027.097       1972.903       3027.097       1972.903       3027.097       1.1715524e+09  0.5            9560000        0              0              0              0
Averages over the last 501 of 1001 rows, steps 18810000 to 18910000:
Temp Press PotEng Density KinEng TotEng Lx Ly Lz Xlo Xhi Ylo Yhi Zlo Zhi Volume Dt
370201 21.8075 -3.72439e+07 0.541456 1.10239e+06 -3.61415e+07 1054.19 1054.19 1054.19 1972.9 3027.1 1972.9 3027.1 1972.9 3027.1 1.17155e+09 0.5
Loop time of 20.5938 on 4 procs for 200000 steps with 1000 atoms

unfix 3

fix 4 all nvt temp 370000 300 100.0

run 100000
Generated 0 of 1 mixed pair_coeff terms from geometric mixing rule
Step          Temp          Press          PotEng        Density         KinEng         TotEng           Lx             Ly             Lz            Xlo            Xhi            Ylo            Yhi            Zlo            Zhi           Volume           Dt            Time           CPU           T/CPU          S/CPU         CPULeft
18910000   365133.54      59.854164     -37229677       0.54145607     1087305.3     -36142371       1054.1941      1054.1941      1054.1941      1972.903       3027.097       1972.903       3027.097       1972.903       3027.097       1.1715524e+09  0.5            9660000        0              0              0              0
Averages over the last 251 of 501 rows, steps 18960000 to 19010000:
Temp Press PotEng Density KinEng TotEng Lx Ly Lz Xlo Xhi Ylo Yhi Zlo Zhi Volume Dt
93331.9 -116.059 -3.85758e+07 0.541456 277927 -3.82979e+07 1054.19 1054.19 1054.19 1972.9 3027.1 1972.9 3027.1 1972.9 3027.1 1.17155e+09 0.5
Loop time of 10.1897 on 4 procs for 100000 steps with 1000 atoms

unfix 4

fix 5 all npt temp 300 300 $(100.0*dt) iso 1.0 1.0 $(1000.0*dt)
fix 5 all npt temp 300 300 50 iso 1.0 1.0 $(1000.0*dt)
fix 5 all npt temp 300 300 50 iso 1.0 1.0 500

run 300000
Generated 0 of 1 mixed pair_coeff terms from geometric mixing rule
Step          Temp          Press          PotEng        Density         KinEng         TotEng           Lx             Ly             Lz            Xlo            Xhi            Ylo            Yhi            Zlo            Zhi           Volume           Dt            Time           CPU           T/CPU          S/CPU         CPULeft
19010000   1351.7244     -117.51244     -39099857       0.54145607     4025.2046     -39095832       1054.1941      1054.1941      1054.1941      1972.903       3027.097       1972.903       3027.097       1972.903       3027.097       1.1715524e+09  0.5            9710000        0              0              0              0
Averages over the last 751 of 1501 rows, steps 19160000 to 19310000:
Temp Press PotEng Density KinEng TotEng Lx Ly Lz Xlo Xhi Ylo Yhi Zlo Zhi Volume Dt
307.723 0.991133 -3.96102e+07 0.555621 916.346 -3.96093e+07 1045.16 1045.16 1045.16 1977.42 3022.58 1977.42 3022.58 1977.42 3022.58 1.14169e+09 0.5
Loop time of 35.8452 on 4 procs for 300000 steps with 1000 atoms

# run_style
run_style verlet

# write restart
write_restart ./pgnpmf/28/equpmf27.res
System init for write_restart ...
Generated 0 of 1 mixed pair_coeff terms from geometric mixing rule
