LAMMPS (23 Jun 2022 - Update 1)
# Read restart
read_restart ./pgnpmf/28/equpmf69.res
Reading restart file ...
  restart file = 23 Jun 2022, LAMMPS = 23 Jun 2022
  restoring atom style atomic from restart
  orthogonal box = (2139.8078 2139.8078 2139.8078) to (2860.1922 2860.1922 2860.1922)
  restoring pair style table from restart
  1000 atoms
  read_restart CPU = 0.004 seconds

# Settings

pair_style table spline 9941

pair_coeff 1 1 ./pgnpmf/N20.txt DE_GNP 75.6
pair_coeff 2 2 ./pgnpmf/N100.txt DE_GNP 115.92
pair_coeff 1 2 ./pgnpmf/mixed_potential.txt DE_GNP 95.66

#Neigh_list Calc Frequency

neigh_modify delay 0 every 1 check yes

# Saving Frequency (50 frames)

variable ts_save equal 5000

# Dump
#dump_modify 1 first no sort id
dump 2 all cfg 50000 ./pgnpmf/28/equilibration/trajectory/dumpgen.tens_*.cfg mass type xs ys zs fx fy fz
dump_modify 2 element N20 N100

# thermo_style
thermo_style custom step temp press pe density ke etotal lx ly lz xlo xhi ylo yhi zlo zhi vol dt time cpu tpcpu spcpu cpuremain

# run info
timestep 0.5
thermo 200

# fix

fix 1 all momentum 1000 linear 1 1 1 angular
variable T equal 300
fix 2 all nvt temp 300 370000 100.0

run 100000
Generated 0 of 1 mixed pair_coeff terms from geometric mixing rule
Unused restart file global fix info:
  fix style: npt, fix ID: 5
  update every 1 steps, delay 0 steps, check yes
Step          Temp          Press          PotEng        Density         KinEng         TotEng           Lx             Ly             Lz            Xlo            Xhi            Ylo            Yhi            Zlo            Zhi           Volume           Dt            Time           CPU           T/CPU          S/CPU         CPULeft
48710000   292.46043      5.8736612     -50706018       1.6968051      870.89723     -50705147       720.38443      720.38443      720.38443      2139.8078      2860.1922      2139.8078      2860.1922      2139.8078      2860.1922      3.7384619e+08  0.5            24560000       0              0              0              0
Averages over the last 251 of 501 rows, steps 48760000 to 48810000:
Temp Press PotEng Density KinEng TotEng Lx Ly Lz Xlo Xhi Ylo Yhi Zlo Zhi Volume Dt
277651 1687.35 -4.98594e+07 1.69681 826798 -4.90326e+07 720.384 720.384 720.384 2139.81 2860.19 2139.81 2860.19 2139.81 2860.19 3.73846e+08 0.5
Loop time of 8.90781 on 4 procs for 100000 steps with 1000 atoms

unfix 2

fix 3 all nvt temp 370000 370000 $(100.0*dt) #iso 1.0 1.0 $(1000.0*dt)
fix 3 all nvt temp 370000 370000 50

run 200000
Generated 0 of 1 mixed pair_coeff terms from geometric mixing rule
Step          Temp          Press          PotEng        Density         KinEng         TotEng           Lx             Ly             Lz            Xlo            Xhi            Ylo            Yhi            Zlo            Zhi           Volume           Dt            Time           CPU           T/CPU          S/CPU         CPULeft
48810000   381542.57      2125.1267     -49571208       1.6968051      1136168.6     -48435039       720.38443      720.38443      720.38443      2139.8078      2860.1922      2139.8078      2860.1922      2139.8078      2860.1922      3.7384619e+08  0.5            24610000       0              0              0              0
Averages over the last 501 of 1001 rows, steps 48910000 to 49010000:
Temp Press PotEng Density KinEng TotEng Lx Ly Lz Xlo Xhi Ylo Yhi Zlo Zhi Volume Dt
369927 1996.78 -4.95184e+07 1.69681 1.10158e+06 -4.84168e+07 720.384 720.384 720.384 2139.81 2860.19 2139.81 2860.19 2139.81 2860.19 3.73846e+08 0.5
Loop time of 17.9825 on 4 procs for 200000 steps with 1000 atoms

unfix 3

fix 4 all nvt temp 370000 300 100.0

run 100000
Generated 0 of 1 mixed pair_coeff terms from geometric mixing rule
Step          Temp          Press          PotEng        Density         KinEng         TotEng           Lx             Ly             Lz            Xlo            Xhi            Ylo            Yhi            Zlo            Zhi           Volume           Dt            Time           CPU           T/CPU          S/CPU         CPULeft
49010000   353601.73      1957.8411     -49635415       1.6968051      1052965.6     -48582450       720.38443      720.38443      720.38443      2139.8078      2860.1922      2139.8078      2860.1922      2139.8078      2860.1922      3.7384619e+08  0.5            24710000       0              0              0              0
Averages over the last 251 of 501 rows, steps 49060000 to 49110000:
Temp Press PotEng Density KinEng TotEng Lx Ly Lz Xlo Xhi Ylo Yhi Zlo Zhi Volume Dt
93097.7 487.192 -5.03581e+07 1.69681 277229 -5.00809e+07 720.384 720.384 720.384 2139.81 2860.19 2139.81 2860.19 2139.81 2860.19 3.73846e+08 0.5
Loop time of 8.87808 on 4 procs for 100000 steps with 1000 atoms

unfix 4

fix 5 all npt temp 300 300 $(100.0*dt) iso 1.0 1.0 $(1000.0*dt)
fix 5 all npt temp 300 300 50 iso 1.0 1.0 $(1000.0*dt)
fix 5 all npt temp 300 300 50 iso 1.0 1.0 500

run 300000
Generated 0 of 1 mixed pair_coeff terms from geometric mixing rule
Step          Temp          Press          PotEng        Density         KinEng         TotEng           Lx             Ly             Lz            Xlo            Xhi            Ylo            Yhi            Zlo            Zhi           Volume           Dt            Time           CPU           T/CPU          S/CPU         CPULeft
49110000   1369.4404      8.5326049     -50632628       1.6968051      4077.9597     -50628550       720.38443      720.38443      720.38443      2139.8078      2860.1922      2139.8078      2860.1922      2139.8078      2860.1922      3.7384619e+08  0.5            24760000       0              0              0              0
Averages over the last 751 of 1501 rows, steps 49260000 to 49410000:
Temp Press PotEng Density KinEng TotEng Lx Ly Lz Xlo Xhi Ylo Yhi Zlo Zhi Volume Dt
300.332 1.23818 -5.07155e+07 1.69769 894.336 -5.07146e+07 720.259 720.259 720.259 2139.87 2860.13 2139.87 2860.13 2139.87 2860.13 3.73651e+08 0.5
Loop time of 30.69 on 4 procs for 300000 steps with 1000 atoms

# run_style
run_style verlet

# write restart
write_restart ./pgnpmf/28/equpmf70.res
System init for write_restart ...
Generated 0 of 1 mixed pair_coeff terms from geometric mixing rule
