LAMMPS (23 Jun 2022 - Update 1)
# Read restart
read_restart ./pgnpmf/28/equpmf12.res
Reading restart file ...
  restart file = 23 Jun 2022, LAMMPS = 23 Jun 2022
  restoring atom style atomic from restart
  orthogonal box = (1881.2369 1881.2369 1881.2369) to (3118.7631 3118.7631 3118.7631)
  restoring pair style table from restart
  1000 atoms
  read_restart CPU = 0.007 seconds

# Settings

pair_style table spline 9941

pair_coeff 1 1 ./pgnpmf/N20.txt DE_GNP 75.6
pair_coeff 2 2 ./pgnpmf/N100.txt DE_GNP 115.92
pair_coeff 1 2 ./pgnpmf/mixed_potential.txt DE_GNP 95.66

#Neigh_list Calc Frequency

neigh_modify delay 0 every 1 check yes

# Saving Frequency (50 frames)

variable ts_save equal 5000

# Dump
#dump_modify 1 first no sort id
dump 2 all cfg 50000 ./pgnpmf/28/equilibration/trajectory/dumpgen.tens_*.cfg mass type xs ys zs fx fy fz
dump_modify 2 element N20 N100

# thermo_style
thermo_style custom step temp press pe density ke etotal lx ly lz xlo xhi ylo yhi zlo zhi vol dt time cpu tpcpu spcpu cpuremain

# run info
timestep 0.5
thermo 200

# fix

fix 1 all momentum 1000 linear 1 1 1 angular
variable T equal 300
fix 2 all nvt temp 300 370000 100.0

run 100000
Generated 0 of 1 mixed pair_coeff terms from geometric mixing rule
Unused restart file global fix info:
  fix style: npt, fix ID: 5
  update every 1 steps, delay 0 steps, check yes
Step          Temp          Press          PotEng        Density         KinEng         TotEng           Lx             Ly             Lz            Xlo            Xhi            Ylo            Yhi            Zlo            Zhi           Volume           Dt            Time           CPU           T/CPU          S/CPU         CPULeft
8810000   308.27667      0.57129557    -29778751       0.33470461     917.99528     -29777833       1237.5262      1237.5262      1237.5262      1881.2369      3118.7631      1881.2369      3118.7631      1881.2369      3118.7631      1.8952357e+09  0.5            4610000        0              0              0              0
Averages over the last 251 of 501 rows, steps 8860000 to 8910000:
Temp Press PotEng Density KinEng TotEng Lx Ly Lz Xlo Xhi Ylo Yhi Zlo Zhi Volume Dt
277648 1.91355 -2.98743e+07 0.334705 826788 -2.90475e+07 1237.53 1237.53 1237.53 1881.24 3118.76 1881.24 3118.76 1881.24 3118.76 1.89524e+09 0.5
Loop time of 5.82652 on 4 procs for 100000 steps with 1000 atoms

unfix 2

fix 3 all nvt temp 370000 370000 $(100.0*dt) #iso 1.0 1.0 $(1000.0*dt)
fix 3 all nvt temp 370000 370000 50

run 200000
Generated 0 of 1 mixed pair_coeff terms from geometric mixing rule
Step          Temp          Press          PotEng        Density         KinEng         TotEng           Lx             Ly             Lz            Xlo            Xhi            Ylo            Yhi            Zlo            Zhi           Volume           Dt            Time           CPU           T/CPU          S/CPU         CPULeft
8910000   367910.46     -11.991897     -29538740       0.33470461     1095574.5     -28443166       1237.5262      1237.5262      1237.5262      1881.2369      3118.7631      1881.2369      3118.7631      1881.2369      3118.7631      1.8952357e+09  0.5            4660000        0              0              0              0
Averages over the last 501 of 1001 rows, steps 9010000 to 9110000:
Temp Press PotEng Density KinEng TotEng Lx Ly Lz Xlo Xhi Ylo Yhi Zlo Zhi Volume Dt
370212 8.77014 -2.91219e+07 0.334705 1.10243e+06 -2.80195e+07 1237.53 1237.53 1237.53 1881.24 3118.76 1881.24 3118.76 1881.24 3118.76 1.89524e+09 0.5
Loop time of 12.8705 on 4 procs for 200000 steps with 1000 atoms

unfix 3

fix 4 all nvt temp 370000 300 100.0

run 100000
Generated 0 of 1 mixed pair_coeff terms from geometric mixing rule
Step          Temp          Press          PotEng        Density         KinEng         TotEng           Lx             Ly             Lz            Xlo            Xhi            Ylo            Yhi            Zlo            Zhi           Volume           Dt            Time           CPU           T/CPU          S/CPU         CPULeft
9110000   389521.32      6.9477181     -29404930       0.33470461     1159928       -28245003       1237.5262      1237.5262      1237.5262      1881.2369      3118.7631      1881.2369      3118.7631      1881.2369      3118.7631      1.8952357e+09  0.5            4760000        0              0              0              0
Averages over the last 251 of 501 rows, steps 9160000 to 9210000:
Temp Press PotEng Density KinEng TotEng Lx Ly Lz Xlo Xhi Ylo Yhi Zlo Zhi Volume Dt
93135.9 -30.6844 -3.08227e+07 0.334705 277343 -3.05453e+07 1237.53 1237.53 1237.53 1881.24 3118.76 1881.24 3118.76 1881.24 3118.76 1.89524e+09 0.5
Loop time of 6.56184 on 4 procs for 100000 steps with 1000 atoms

unfix 4

fix 5 all npt temp 300 300 $(100.0*dt) iso 1.0 1.0 $(1000.0*dt)
fix 5 all npt temp 300 300 50 iso 1.0 1.0 $(1000.0*dt)
fix 5 all npt temp 300 300 50 iso 1.0 1.0 500

run 300000
Generated 0 of 1 mixed pair_coeff terms from geometric mixing rule
Step          Temp          Press          PotEng        Density         KinEng         TotEng           Lx             Ly             Lz            Xlo            Xhi            Ylo            Yhi            Zlo            Zhi           Volume           Dt            Time           CPU           T/CPU          S/CPU         CPULeft
9210000   1355.7183     -38.785303     -31302858       0.33470461     4037.0975     -31298821       1237.5262      1237.5262      1237.5262      1881.2369      3118.7631      1881.2369      3118.7631      1881.2369      3118.7631      1.8952357e+09  0.5            4810000        0              0              0              0
Averages over the last 751 of 1501 rows, steps 9360000 to 9510000:
Temp Press PotEng Density KinEng TotEng Lx Ly Lz Xlo Xhi Ylo Yhi Zlo Zhi Volume Dt
308.246 0.990208 -3.171e+07 0.347372 917.903 -3.17091e+07 1222.3 1222.3 1222.3 1888.85 3111.15 1888.85 3111.15 1888.85 3111.15 1.82616e+09 0.5
Loop time of 23.8894 on 4 procs for 300000 steps with 1000 atoms

# run_style
run_style verlet

# write restart
write_restart ./pgnpmf/28/equpmf13.res
System init for write_restart ...
Generated 0 of 1 mixed pair_coeff terms from geometric mixing rule
