LAMMPS (23 Jun 2022 - Update 1)
# Read restart
read_restart ./pgnpmf/28/equpmf17.res
Reading restart file ...
  restart file = 23 Jun 2022, LAMMPS = 23 Jun 2022
  restoring atom style atomic from restart
  orthogonal box = (1919.1175 1919.1175 1919.1175) to (3080.8825 3080.8825 3080.8825)
  restoring pair style table from restart
  1000 atoms
  read_restart CPU = 0.004 seconds

# Settings

pair_style table spline 9941

pair_coeff 1 1 ./pgnpmf/N20.txt DE_GNP 75.6
pair_coeff 2 2 ./pgnpmf/N100.txt DE_GNP 115.92
pair_coeff 1 2 ./pgnpmf/mixed_potential.txt DE_GNP 95.66

#Neigh_list Calc Frequency

neigh_modify delay 0 every 1 check yes

# Saving Frequency (50 frames)

variable ts_save equal 5000

# Dump
#dump_modify 1 first no sort id
dump 2 all cfg 50000 ./pgnpmf/28/equilibration/trajectory/dumpgen.tens_*.cfg mass type xs ys zs fx fy fz
dump_modify 2 element N20 N100

# thermo_style
thermo_style custom step temp press pe density ke etotal lx ly lz xlo xhi ylo yhi zlo zhi vol dt time cpu tpcpu spcpu cpuremain

# run info
timestep 0.5
thermo 200

# fix

fix 1 all momentum 1000 linear 1 1 1 angular
variable T equal 300
fix 2 all nvt temp 300 370000 100.0

run 100000
Generated 0 of 1 mixed pair_coeff terms from geometric mixing rule
Unused restart file global fix info:
  fix style: npt, fix ID: 5
  update every 1 steps, delay 0 steps, check yes
Step          Temp          Press          PotEng        Density         KinEng         TotEng           Lx             Ly             Lz            Xlo            Xhi            Ylo            Yhi            Zlo            Zhi           Volume           Dt            Time           CPU           T/CPU          S/CPU         CPULeft
12310000   307.89767      0.79021085    -35918333       0.40454793     916.86667     -35917417       1161.7651      1161.7651      1161.7651      1919.1175      3080.8825      1919.1175      3080.8825      1919.1175      3080.8825      1.5680321e+09  0.5            6360000        0              0              0              0
Averages over the last 251 of 501 rows, steps 12360000 to 12410000:
Temp Press PotEng Density KinEng TotEng Lx Ly Lz Xlo Xhi Ylo Yhi Zlo Zhi Volume Dt
277518 9.5325 -3.53974e+07 0.404548 826401 -3.4571e+07 1161.77 1161.77 1161.77 1919.12 3080.88 1919.12 3080.88 1919.12 3080.88 1.56803e+09 0.5
Loop time of 8.64199 on 4 procs for 100000 steps with 1000 atoms

unfix 2

fix 3 all nvt temp 370000 370000 $(100.0*dt) #iso 1.0 1.0 $(1000.0*dt)
fix 3 all nvt temp 370000 370000 50

run 200000
Generated 0 of 1 mixed pair_coeff terms from geometric mixing rule
Step          Temp          Press          PotEng        Density         KinEng         TotEng           Lx             Ly             Lz            Xlo            Xhi            Ylo            Yhi            Zlo            Zhi           Volume           Dt            Time           CPU           T/CPU          S/CPU         CPULeft
12410000   372618.78      0.84078363    -35033662       0.40454793     1109595.1     -33924067       1161.7651      1161.7651      1161.7651      1919.1175      3080.8825      1919.1175      3080.8825      1919.1175      3080.8825      1.5680321e+09  0.5            6410000        0              0              0              0
Averages over the last 501 of 1001 rows, steps 12510000 to 12610000:
Temp Press PotEng Density KinEng TotEng Lx Ly Lz Xlo Xhi Ylo Yhi Zlo Zhi Volume Dt
370187 12.557 -3.47212e+07 0.404548 1.10235e+06 -3.36189e+07 1161.77 1161.77 1161.77 1919.12 3080.88 1919.12 3080.88 1919.12 3080.88 1.56803e+09 0.5
Loop time of 17.6609 on 4 procs for 200000 steps with 1000 atoms

unfix 3

fix 4 all nvt temp 370000 300 100.0

run 100000
Generated 0 of 1 mixed pair_coeff terms from geometric mixing rule
Step          Temp          Press          PotEng        Density         KinEng         TotEng           Lx             Ly             Lz            Xlo            Xhi            Ylo            Yhi            Zlo            Zhi           Volume           Dt            Time           CPU           T/CPU          S/CPU         CPULeft
12610000   366260.61      27.424267     -34772330       0.40454793     1090661.6     -33681668       1161.7651      1161.7651      1161.7651      1919.1175      3080.8825      1919.1175      3080.8825      1919.1175      3080.8825      1.5680321e+09  0.5            6510000        0              0              0              0
Averages over the last 251 of 501 rows, steps 12660000 to 12710000:
Temp Press PotEng Density KinEng TotEng Lx Ly Lz Xlo Xhi Ylo Yhi Zlo Zhi Volume Dt
93126.3 -45.5374 -3.61109e+07 0.404548 277314 -3.58336e+07 1161.77 1161.77 1161.77 1919.12 3080.88 1919.12 3080.88 1919.12 3080.88 1.56803e+09 0.5
Loop time of 8.97988 on 4 procs for 100000 steps with 1000 atoms

unfix 4

fix 5 all npt temp 300 300 $(100.0*dt) iso 1.0 1.0 $(1000.0*dt)
fix 5 all npt temp 300 300 50 iso 1.0 1.0 $(1000.0*dt)
fix 5 all npt temp 300 300 50 iso 1.0 1.0 500

run 300000
Generated 0 of 1 mixed pair_coeff terms from geometric mixing rule
Step          Temp          Press          PotEng        Density         KinEng         TotEng           Lx             Ly             Lz            Xlo            Xhi            Ylo            Yhi            Zlo            Zhi           Volume           Dt            Time           CPU           T/CPU          S/CPU         CPULeft
12710000   1369.1096     -66.300648     -36644939       0.40454793     4076.9746     -36640862       1161.7651      1161.7651      1161.7651      1919.1175      3080.8825      1919.1175      3080.8825      1919.1175      3080.8825      1.5680321e+09  0.5            6560000        0              0              0              0
Averages over the last 751 of 1501 rows, steps 12860000 to 13010000:
Temp Press PotEng Density KinEng TotEng Lx Ly Lz Xlo Xhi Ylo Yhi Zlo Zhi Volume Dt
308.058 1.00576 -3.70181e+07 0.415352 917.345 -3.70172e+07 1151.6 1151.6 1151.6 1924.2 3075.8 1924.2 3075.8 1924.2 3075.8 1.52726e+09 0.5
Loop time of 32.2143 on 4 procs for 300000 steps with 1000 atoms

# run_style
run_style verlet

# write restart
write_restart ./pgnpmf/28/equpmf18.res
System init for write_restart ...
Generated 0 of 1 mixed pair_coeff terms from geometric mixing rule
