LAMMPS (23 Jun 2022 - Update 1)
# Read restart
read_restart ./pgnpmf/28/equpmf11.res
Reading restart file ...
  restart file = 23 Jun 2022, LAMMPS = 23 Jun 2022
  restoring atom style atomic from restart
  orthogonal box = (1871.3829 1871.3829 1871.3829) to (3128.6171 3128.6171 3128.6171)
  restoring pair style table from restart
  1000 atoms
  read_restart CPU = 0.004 seconds

# Settings

pair_style table spline 9941

pair_coeff 1 1 ./pgnpmf/N20.txt DE_GNP 75.6
pair_coeff 2 2 ./pgnpmf/N100.txt DE_GNP 115.92
pair_coeff 1 2 ./pgnpmf/mixed_potential.txt DE_GNP 95.66

#Neigh_list Calc Frequency

neigh_modify delay 0 every 1 check yes

# Saving Frequency (50 frames)

variable ts_save equal 5000

# Dump
#dump_modify 1 first no sort id
dump 2 all cfg 50000 ./pgnpmf/28/equilibration/trajectory/dumpgen.tens_*.cfg mass type xs ys zs fx fy fz
dump_modify 2 element N20 N100

# thermo_style
thermo_style custom step temp press pe density ke etotal lx ly lz xlo xhi ylo yhi zlo zhi vol dt time cpu tpcpu spcpu cpuremain

# run info
timestep 0.5
thermo 200

# fix

fix 1 all momentum 1000 linear 1 1 1 angular
variable T equal 300
fix 2 all nvt temp 300 370000 100.0

run 100000
Generated 0 of 1 mixed pair_coeff terms from geometric mixing rule
Unused restart file global fix info:
  fix style: npt, fix ID: 5
  update every 1 steps, delay 0 steps, check yes
Step          Temp          Press          PotEng        Density         KinEng         TotEng           Lx             Ly             Lz            Xlo            Xhi            Ylo            Yhi            Zlo            Zhi           Volume           Dt            Time           CPU           T/CPU          S/CPU         CPULeft
8110000   310.25497      1.2975233     -27745087       0.31920998     923.88632     -27744163       1257.2341      1257.2341      1257.2341      1871.3829      3128.6171      1871.3829      3128.6171      1871.3829      3128.6171      1.9872315e+09  0.5            4260000        0              0              0              0
Averages over the last 251 of 501 rows, steps 8160000 to 8210000:
Temp Press PotEng Density KinEng TotEng Lx Ly Lz Xlo Xhi Ylo Yhi Zlo Zhi Volume Dt
277716 9.88983 -2.79339e+07 0.31921 826990 -2.71069e+07 1257.23 1257.23 1257.23 1871.38 3128.62 1871.38 3128.62 1871.38 3128.62 1.98723e+09 0.5
Loop time of 5.71112 on 4 procs for 100000 steps with 1000 atoms

unfix 2

fix 3 all nvt temp 370000 370000 $(100.0*dt) #iso 1.0 1.0 $(1000.0*dt)
fix 3 all nvt temp 370000 370000 50

run 200000
Generated 0 of 1 mixed pair_coeff terms from geometric mixing rule
Step          Temp          Press          PotEng        Density         KinEng         TotEng           Lx             Ly             Lz            Xlo            Xhi            Ylo            Yhi            Zlo            Zhi           Volume           Dt            Time           CPU           T/CPU          S/CPU         CPULeft
8210000   360693.26      9.6684162     -27739412       0.31920998     1074082.9     -26665329       1257.2341      1257.2341      1257.2341      1871.3829      3128.6171      1871.3829      3128.6171      1871.3829      3128.6171      1.9872315e+09  0.5            4310000        0              0              0              0
Averages over the last 501 of 1001 rows, steps 8310000 to 8410000:
Temp Press PotEng Density KinEng TotEng Lx Ly Lz Xlo Xhi Ylo Yhi Zlo Zhi Volume Dt
370258 5.39313 -2.74256e+07 0.31921 1.10257e+06 -2.6323e+07 1257.23 1257.23 1257.23 1871.38 3128.62 1871.38 3128.62 1871.38 3128.62 1.98723e+09 0.5
Loop time of 11.737 on 4 procs for 200000 steps with 1000 atoms

unfix 3

fix 4 all nvt temp 370000 300 100.0

run 100000
Generated 0 of 1 mixed pair_coeff terms from geometric mixing rule
Step          Temp          Press          PotEng        Density         KinEng         TotEng           Lx             Ly             Lz            Xlo            Xhi            Ylo            Yhi            Zlo            Zhi           Volume           Dt            Time           CPU           T/CPU          S/CPU         CPULeft
8410000   377712.06      29.500188     -27416903       0.31920998     1124762       -26292141       1257.2341      1257.2341      1257.2341      1871.3829      3128.6171      1871.3829      3128.6171      1871.3829      3128.6171      1.9872315e+09  0.5            4410000        0              0              0              0
Averages over the last 251 of 501 rows, steps 8460000 to 8510000:
Temp Press PotEng Density KinEng TotEng Lx Ly Lz Xlo Xhi Ylo Yhi Zlo Zhi Volume Dt
93299 -30.316 -2.86765e+07 0.31921 277828 -2.83987e+07 1257.23 1257.23 1257.23 1871.38 3128.62 1871.38 3128.62 1871.38 3128.62 1.98723e+09 0.5
Loop time of 5.86258 on 4 procs for 100000 steps with 1000 atoms

unfix 4

fix 5 all npt temp 300 300 $(100.0*dt) iso 1.0 1.0 $(1000.0*dt)
fix 5 all npt temp 300 300 50 iso 1.0 1.0 $(1000.0*dt)
fix 5 all npt temp 300 300 50 iso 1.0 1.0 500

run 300000
Generated 0 of 1 mixed pair_coeff terms from geometric mixing rule
Step          Temp          Press          PotEng        Density         KinEng         TotEng           Lx             Ly             Lz            Xlo            Xhi            Ylo            Yhi            Zlo            Zhi           Volume           Dt            Time           CPU           T/CPU          S/CPU         CPULeft
8510000   1352.0983     -38.450454     -29219666       0.31920998     4026.3178     -29215639       1257.2341      1257.2341      1257.2341      1871.3829      3128.6171      1871.3829      3128.6171      1871.3829      3128.6171      1.9872315e+09  0.5            4460000        0              0              0              0
Averages over the last 751 of 1501 rows, steps 8660000 to 8810000:
Temp Press PotEng Density KinEng TotEng Lx Ly Lz Xlo Xhi Ylo Yhi Zlo Zhi Volume Dt
309.8 0.995718 -2.97063e+07 0.331828 922.532 -2.97054e+07 1241.1 1241.1 1241.1 1879.45 3120.55 1879.45 3120.55 1879.45 3120.55 1.91172e+09 0.5
Loop time of 20.7155 on 4 procs for 300000 steps with 1000 atoms

# run_style
run_style verlet

# write restart
write_restart ./pgnpmf/28/equpmf12.res
System init for write_restart ...
Generated 0 of 1 mixed pair_coeff terms from geometric mixing rule
