LAMMPS (23 Jun 2022 - Update 1)
# Read restart
read_restart ./pgnpmf/28/equpmf65.res
Reading restart file ...
  restart file = 23 Jun 2022, LAMMPS = 23 Jun 2022
  restoring atom style atomic from restart
  orthogonal box = (2139.7332 2139.7332 2139.7332) to (2860.2668 2860.2668 2860.2668)
  restoring pair style table from restart
  1000 atoms
  read_restart CPU = 0.004 seconds

# Settings

pair_style table spline 9941

pair_coeff 1 1 ./pgnpmf/N20.txt DE_GNP 75.6
pair_coeff 2 2 ./pgnpmf/N100.txt DE_GNP 115.92
pair_coeff 1 2 ./pgnpmf/mixed_potential.txt DE_GNP 95.66

#Neigh_list Calc Frequency

neigh_modify delay 0 every 1 check yes

# Saving Frequency (50 frames)

variable ts_save equal 5000

# Dump
#dump_modify 1 first no sort id
dump 2 all cfg 50000 ./pgnpmf/28/equilibration/trajectory/dumpgen.tens_*.cfg mass type xs ys zs fx fy fz
dump_modify 2 element N20 N100

# thermo_style
thermo_style custom step temp press pe density ke etotal lx ly lz xlo xhi ylo yhi zlo zhi vol dt time cpu tpcpu spcpu cpuremain

# run info
timestep 0.5
thermo 200

# fix

fix 1 all momentum 1000 linear 1 1 1 angular
variable T equal 300
fix 2 all nvt temp 300 370000 100.0

run 100000
Generated 0 of 1 mixed pair_coeff terms from geometric mixing rule
Unused restart file global fix info:
  fix style: npt, fix ID: 5
  update every 1 steps, delay 0 steps, check yes
Step          Temp          Press          PotEng        Density         KinEng         TotEng           Lx             Ly             Lz            Xlo            Xhi            Ylo            Yhi            Zlo            Zhi           Volume           Dt            Time           CPU           T/CPU          S/CPU         CPULeft
45910000   296.79728     -5.7303066     -50783420       1.6957515      883.81161     -50782537       720.53361      720.53361      720.53361      2139.7332      2860.2668      2139.7332      2860.2668      2139.7332      2860.2668      3.7407848e+08  0.5            23160000       0              0              0              0
Averages over the last 251 of 501 rows, steps 45960000 to 46010000:
Temp Press PotEng Density KinEng TotEng Lx Ly Lz Xlo Xhi Ylo Yhi Zlo Zhi Volume Dt
277104 1724.83 -4.98651e+07 1.69575 825170 -4.90399e+07 720.534 720.534 720.534 2139.73 2860.27 2139.73 2860.27 2139.73 2860.27 3.74078e+08 0.5
Loop time of 9.05919 on 4 procs for 100000 steps with 1000 atoms

unfix 2

fix 3 all nvt temp 370000 370000 $(100.0*dt) #iso 1.0 1.0 $(1000.0*dt)
fix 3 all nvt temp 370000 370000 50

run 200000
Generated 0 of 1 mixed pair_coeff terms from geometric mixing rule
Step          Temp          Press          PotEng        Density         KinEng         TotEng           Lx             Ly             Lz            Xlo            Xhi            Ylo            Yhi            Zlo            Zhi           Volume           Dt            Time           CPU           T/CPU          S/CPU         CPULeft
46010000   359515.53      2114.732      -49445834       1.6957515      1070575.8     -48375258       720.53361      720.53361      720.53361      2139.7332      2860.2668      2139.7332      2860.2668      2139.7332      2860.2668      3.7407848e+08  0.5            23210000       0              0              0              0
Averages over the last 501 of 1001 rows, steps 46110000 to 46210000:
Temp Press PotEng Density KinEng TotEng Lx Ly Lz Xlo Xhi Ylo Yhi Zlo Zhi Volume Dt
370137 2017.2 -4.95389e+07 1.69575 1.1022e+06 -4.84367e+07 720.534 720.534 720.534 2139.73 2860.27 2139.73 2860.27 2139.73 2860.27 3.74078e+08 0.5
Loop time of 18.1924 on 4 procs for 200000 steps with 1000 atoms

unfix 3

fix 4 all nvt temp 370000 300 100.0

run 100000
Generated 0 of 1 mixed pair_coeff terms from geometric mixing rule
Step          Temp          Press          PotEng        Density         KinEng         TotEng           Lx             Ly             Lz            Xlo            Xhi            Ylo            Yhi            Zlo            Zhi           Volume           Dt            Time           CPU           T/CPU          S/CPU         CPULeft
46210000   372542.22      1958.7611     -49571199       1.6957515      1109367.1     -48461832       720.53361      720.53361      720.53361      2139.7332      2860.2668      2139.7332      2860.2668      2139.7332      2860.2668      3.7407848e+08  0.5            23310000       0              0              0              0
Averages over the last 251 of 501 rows, steps 46260000 to 46310000:
Temp Press PotEng Density KinEng TotEng Lx Ly Lz Xlo Xhi Ylo Yhi Zlo Zhi Volume Dt
92978.6 491.844 -5.03795e+07 1.69575 276874 -5.01026e+07 720.534 720.534 720.534 2139.73 2860.27 2139.73 2860.27 2139.73 2860.27 3.74078e+08 0.5
Loop time of 9.00116 on 4 procs for 100000 steps with 1000 atoms

unfix 4

fix 5 all npt temp 300 300 $(100.0*dt) iso 1.0 1.0 $(1000.0*dt)
fix 5 all npt temp 300 300 50 iso 1.0 1.0 $(1000.0*dt)
fix 5 all npt temp 300 300 50 iso 1.0 1.0 500

run 300000
Generated 0 of 1 mixed pair_coeff terms from geometric mixing rule
Step          Temp          Press          PotEng        Density         KinEng         TotEng           Lx             Ly             Lz            Xlo            Xhi            Ylo            Yhi            Zlo            Zhi           Volume           Dt            Time           CPU           T/CPU          S/CPU         CPULeft
46310000   1360.7241      4.9836983     -50625596       1.6957515      4052.004      -50621544       720.53361      720.53361      720.53361      2139.7332      2860.2668      2139.7332      2860.2668      2139.7332      2860.2668      3.7407848e+08  0.5            23360000       0              0              0              0
Averages over the last 751 of 1501 rows, steps 46460000 to 46610000:
Temp Press PotEng Density KinEng TotEng Lx Ly Lz Xlo Xhi Ylo Yhi Zlo Zhi Volume Dt
299.998 1.18771 -5.0628e+07 1.69632 893.342 -5.06272e+07 720.454 720.454 720.454 2139.77 2860.23 2139.77 2860.23 2139.77 2860.23 3.73954e+08 0.5
Loop time of 30.8826 on 4 procs for 300000 steps with 1000 atoms

# run_style
run_style verlet

# write restart
write_restart ./pgnpmf/28/equpmf66.res
System init for write_restart ...
Generated 0 of 1 mixed pair_coeff terms from geometric mixing rule
