LAMMPS (23 Jun 2022 - Update 1)
# Read restart
read_restart ./pgnpmf/28/equpmf33.res
Reading restart file ...
  restart file = 23 Jun 2022, LAMMPS = 23 Jun 2022
  restoring atom style atomic from restart
  orthogonal box = (2010.982 2010.982 2010.982) to (2989.018 2989.018 2989.018)
  restoring pair style table from restart
  1000 atoms
  read_restart CPU = 0.004 seconds

# Settings

pair_style table spline 9941

pair_coeff 1 1 ./pgnpmf/N20.txt DE_GNP 75.6
pair_coeff 2 2 ./pgnpmf/N100.txt DE_GNP 115.92
pair_coeff 1 2 ./pgnpmf/mixed_potential.txt DE_GNP 95.66

#Neigh_list Calc Frequency

neigh_modify delay 0 every 1 check yes

# Saving Frequency (50 frames)

variable ts_save equal 5000

# Dump
#dump_modify 1 first no sort id
dump 2 all cfg 50000 ./pgnpmf/28/equilibration/trajectory/dumpgen.tens_*.cfg mass type xs ys zs fx fy fz
dump_modify 2 element N20 N100

# thermo_style
thermo_style custom step temp press pe density ke etotal lx ly lz xlo xhi ylo yhi zlo zhi vol dt time cpu tpcpu spcpu cpuremain

# run info
timestep 0.5
thermo 200

# fix

fix 1 all momentum 1000 linear 1 1 1 angular
variable T equal 300
fix 2 all nvt temp 300 370000 100.0

run 100000
Generated 0 of 1 mixed pair_coeff terms from geometric mixing rule
Unused restart file global fix info:
  fix style: npt, fix ID: 5
  update every 1 steps, delay 0 steps, check yes
Step          Temp          Press          PotEng        Density         KinEng         TotEng           Lx             Ly             Lz            Xlo            Xhi            Ylo            Yhi            Zlo            Zhi           Volume           Dt            Time           CPU           T/CPU          S/CPU         CPULeft
23510000   305.26207      0.92964127    -42634727       0.67804785     909.01833     -42633818       978.03605      978.03605      978.03605      2010.982       2989.018       2010.982       2989.018       2010.982       2989.018       9.3554479e+08  0.5            11960000       0              0              0              0
Averages over the last 251 of 501 rows, steps 23560000 to 23610000:
Temp Press PotEng Density KinEng TotEng Lx Ly Lz Xlo Xhi Ylo Yhi Zlo Zhi Volume Dt
277484 46.0023 -4.19178e+07 0.678048 826301 -4.10915e+07 978.036 978.036 978.036 2010.98 2989.02 2010.98 2989.02 2010.98 2989.02 9.35545e+08 0.5
Loop time of 10.3986 on 4 procs for 100000 steps with 1000 atoms

unfix 2

fix 3 all nvt temp 370000 370000 $(100.0*dt) #iso 1.0 1.0 $(1000.0*dt)
fix 3 all nvt temp 370000 370000 50

run 200000
Generated 0 of 1 mixed pair_coeff terms from geometric mixing rule
Step          Temp          Press          PotEng        Density         KinEng         TotEng           Lx             Ly             Lz            Xlo            Xhi            Ylo            Yhi            Zlo            Zhi           Volume           Dt            Time           CPU           T/CPU          S/CPU         CPULeft
23610000   377913.89      62.63617      -41305804       0.67804785     1125363       -40180441       978.03605      978.03605      978.03605      2010.982       2989.018       2010.982       2989.018       2010.982       2989.018       9.3554479e+08  0.5            12010000       0              0              0              0
Averages over the last 501 of 1001 rows, steps 23710000 to 23810000:
Temp Press PotEng Density KinEng TotEng Lx Ly Lz Xlo Xhi Ylo Yhi Zlo Zhi Volume Dt
369964 21.213 -4.05875e+07 0.678048 1.10169e+06 -3.94858e+07 978.036 978.036 978.036 2010.98 2989.02 2010.98 2989.02 2010.98 2989.02 9.35545e+08 0.5
Loop time of 20.261 on 4 procs for 200000 steps with 1000 atoms

unfix 3

fix 4 all nvt temp 370000 300 100.0

run 100000
Generated 0 of 1 mixed pair_coeff terms from geometric mixing rule
Step          Temp          Press          PotEng        Density         KinEng         TotEng           Lx             Ly             Lz            Xlo            Xhi            Ylo            Yhi            Zlo            Zhi           Volume           Dt            Time           CPU           T/CPU          S/CPU         CPULeft
23810000   376464.02      54.311106     -40558527       0.67804785     1121045.6     -39437482       978.03605      978.03605      978.03605      2010.982       2989.018       2010.982       2989.018       2010.982       2989.018       9.3554479e+08  0.5            12110000       0              0              0              0
Averages over the last 251 of 501 rows, steps 23860000 to 23910000:
Temp Press PotEng Density KinEng TotEng Lx Ly Lz Xlo Xhi Ylo Yhi Zlo Zhi Volume Dt
93174.4 -176.682 -4.16177e+07 0.678048 277458 -4.13403e+07 978.036 978.036 978.036 2010.98 2989.02 2010.98 2989.02 2010.98 2989.02 9.35545e+08 0.5
Loop time of 9.58817 on 4 procs for 100000 steps with 1000 atoms

unfix 4

fix 5 all npt temp 300 300 $(100.0*dt) iso 1.0 1.0 $(1000.0*dt)
fix 5 all npt temp 300 300 50 iso 1.0 1.0 $(1000.0*dt)
fix 5 all npt temp 300 300 50 iso 1.0 1.0 500

run 300000
Generated 0 of 1 mixed pair_coeff terms from geometric mixing rule
Step          Temp          Press          PotEng        Density         KinEng         TotEng           Lx             Ly             Lz            Xlo            Xhi            Ylo            Yhi            Zlo            Zhi           Volume           Dt            Time           CPU           T/CPU          S/CPU         CPULeft
23910000   1359.1514     -175.20071     -42145446       0.67804785     4047.3208     -42141398       978.03605      978.03605      978.03605      2010.982       2989.018       2010.982       2989.018       2010.982       2989.018       9.3554479e+08  0.5            12160000       0              0              0              0
Averages over the last 751 of 1501 rows, steps 24060000 to 24210000:
Temp Press PotEng Density KinEng TotEng Lx Ly Lz Xlo Xhi Ylo Yhi Zlo Zhi Volume Dt
306.513 0.987482 -4.2486e+07 0.695202 912.742 -4.24851e+07 969.925 969.925 969.925 2015.04 2984.96 2015.04 2984.96 2015.04 2984.96 9.12463e+08 0.5
Loop time of 33.1219 on 4 procs for 300000 steps with 1000 atoms

# run_style
run_style verlet

# write restart
write_restart ./pgnpmf/28/equpmf34.res
System init for write_restart ...
Generated 0 of 1 mixed pair_coeff terms from geometric mixing rule
