LAMMPS (23 Jun 2022 - Update 1)
# Read restart
read_restart ./pgnpmf/28/equpmf36.res
Reading restart file ...
  restart file = 23 Jun 2022, LAMMPS = 23 Jun 2022
  restoring atom style atomic from restart
  orthogonal box = (2026.9548 2026.9548 2026.9548) to (2973.0452 2973.0452 2973.0452)
  restoring pair style table from restart
  1000 atoms
  read_restart CPU = 0.004 seconds

# Settings

pair_style table spline 9941

pair_coeff 1 1 ./pgnpmf/N20.txt DE_GNP 75.6
pair_coeff 2 2 ./pgnpmf/N100.txt DE_GNP 115.92
pair_coeff 1 2 ./pgnpmf/mixed_potential.txt DE_GNP 95.66

#Neigh_list Calc Frequency

neigh_modify delay 0 every 1 check yes

# Saving Frequency (50 frames)

variable ts_save equal 5000

# Dump
#dump_modify 1 first no sort id
dump 2 all cfg 50000 ./pgnpmf/28/equilibration/trajectory/dumpgen.tens_*.cfg mass type xs ys zs fx fy fz
dump_modify 2 element N20 N100

# thermo_style
thermo_style custom step temp press pe density ke etotal lx ly lz xlo xhi ylo yhi zlo zhi vol dt time cpu tpcpu spcpu cpuremain

# run info
timestep 0.5
thermo 200

# fix

fix 1 all momentum 1000 linear 1 1 1 angular
variable T equal 300
fix 2 all nvt temp 300 370000 100.0

run 100000
Generated 0 of 1 mixed pair_coeff terms from geometric mixing rule
Unused restart file global fix info:
  fix style: npt, fix ID: 5
  update every 1 steps, delay 0 steps, check yes
Step          Temp          Press          PotEng        Density         KinEng         TotEng           Lx             Ly             Lz            Xlo            Xhi            Ylo            Yhi            Zlo            Zhi           Volume           Dt            Time           CPU           T/CPU          S/CPU         CPULeft
25610000   305.16304     -0.99575531    -43235840       0.74907791     908.72343     -43234931       946.09042      946.09042      946.09042      2026.9548      2973.0452      2026.9548      2973.0452      2026.9548      2973.0452      8.4683332e+08  0.5            13010000       0              0              0              0
Averages over the last 251 of 501 rows, steps 25660000 to 25710000:
Temp Press PotEng Density KinEng TotEng Lx Ly Lz Xlo Xhi Ylo Yhi Zlo Zhi Volume Dt
277560 28.8079 -4.2385e+07 0.749078 826525 -4.15585e+07 946.09 946.09 946.09 2026.95 2973.05 2026.95 2973.05 2026.95 2973.05 8.46833e+08 0.5
Loop time of 8.86988 on 4 procs for 100000 steps with 1000 atoms

unfix 2

fix 3 all nvt temp 370000 370000 $(100.0*dt) #iso 1.0 1.0 $(1000.0*dt)
fix 3 all nvt temp 370000 370000 50

run 200000
Generated 0 of 1 mixed pair_coeff terms from geometric mixing rule
Step          Temp          Press          PotEng        Density         KinEng         TotEng           Lx             Ly             Lz            Xlo            Xhi            Ylo            Yhi            Zlo            Zhi           Volume           Dt            Time           CPU           T/CPU          S/CPU         CPULeft
25710000   352924.01      44.854852     -41920486       0.74907791     1050947.4     -40869538       946.09042      946.09042      946.09042      2026.9548      2973.0452      2026.9548      2973.0452      2026.9548      2973.0452      8.4683332e+08  0.5            13060000       0              0              0              0
Averages over the last 501 of 1001 rows, steps 25810000 to 25910000:
Temp Press PotEng Density KinEng TotEng Lx Ly Lz Xlo Xhi Ylo Yhi Zlo Zhi Volume Dt
370013 11.6837 -4.10276e+07 0.749078 1.10183e+06 -3.99258e+07 946.09 946.09 946.09 2026.95 2973.05 2026.95 2973.05 2026.95 2973.05 8.46833e+08 0.5
Loop time of 17.5042 on 4 procs for 200000 steps with 1000 atoms

unfix 3

fix 4 all nvt temp 370000 300 100.0

run 100000
Generated 0 of 1 mixed pair_coeff terms from geometric mixing rule
Step          Temp          Press          PotEng        Density         KinEng         TotEng           Lx             Ly             Lz            Xlo            Xhi            Ylo            Yhi            Zlo            Zhi           Volume           Dt            Time           CPU           T/CPU          S/CPU         CPULeft
25910000   349628.54      28.216354     -40944120       0.74907791     1041134.1     -39902986       946.09042      946.09042      946.09042      2026.9548      2973.0452      2026.9548      2973.0452      2026.9548      2973.0452      8.4683332e+08  0.5            13160000       0              0              0              0
Averages over the last 251 of 501 rows, steps 25960000 to 26010000:
Temp Press PotEng Density KinEng TotEng Lx Ly Lz Xlo Xhi Ylo Yhi Zlo Zhi Volume Dt
93202.4 -223.384 -4.19434e+07 0.749078 277541 -4.16659e+07 946.09 946.09 946.09 2026.95 2973.05 2026.95 2973.05 2026.95 2973.05 8.46833e+08 0.5
Loop time of 8.58845 on 4 procs for 100000 steps with 1000 atoms

unfix 4

fix 5 all npt temp 300 300 $(100.0*dt) iso 1.0 1.0 $(1000.0*dt)
fix 5 all npt temp 300 300 50 iso 1.0 1.0 $(1000.0*dt)
fix 5 all npt temp 300 300 50 iso 1.0 1.0 500

run 300000
Generated 0 of 1 mixed pair_coeff terms from geometric mixing rule
Step          Temp          Press          PotEng        Density         KinEng         TotEng           Lx             Ly             Lz            Xlo            Xhi            Ylo            Yhi            Zlo            Zhi           Volume           Dt            Time           CPU           T/CPU          S/CPU         CPULeft
26010000   1360.0851     -250.23095     -42477730       0.74907791     4050.1012     -42473680       946.09042      946.09042      946.09042      2026.9548      2973.0452      2026.9548      2973.0452      2026.9548      2973.0452      8.4683332e+08  0.5            13210000       0              0              0              0
Averages over the last 751 of 1501 rows, steps 26160000 to 26310000:
Temp Press PotEng Density KinEng TotEng Lx Ly Lz Xlo Xhi Ylo Yhi Zlo Zhi Volume Dt
307.343 1.01426 -4.29414e+07 0.774344 915.216 -4.29405e+07 935.688 935.688 935.688 2032.16 2967.84 2032.16 2967.84 2032.16 2967.84 8.19208e+08 0.5
Loop time of 30.071 on 4 procs for 300000 steps with 1000 atoms

# run_style
run_style verlet

# write restart
write_restart ./pgnpmf/28/equpmf37.res
System init for write_restart ...
Generated 0 of 1 mixed pair_coeff terms from geometric mixing rule
