LAMMPS (23 Jun 2022 - Update 1)
# Read restart
read_restart ./pgnpmf/28/equpmf24.res
Reading restart file ...
  restart file = 23 Jun 2022, LAMMPS = 23 Jun 2022
  restoring atom style atomic from restart
  orthogonal box = (1960.8375 1960.8375 1960.8375) to (3039.1625 3039.1625 3039.1625)
  restoring pair style table from restart
  1000 atoms
  read_restart CPU = 0.004 seconds

# Settings

pair_style table spline 9941

pair_coeff 1 1 ./pgnpmf/N20.txt DE_GNP 75.6
pair_coeff 2 2 ./pgnpmf/N100.txt DE_GNP 115.92
pair_coeff 1 2 ./pgnpmf/mixed_potential.txt DE_GNP 95.66

#Neigh_list Calc Frequency

neigh_modify delay 0 every 1 check yes

# Saving Frequency (50 frames)

variable ts_save equal 5000

# Dump
#dump_modify 1 first no sort id
dump 2 all cfg 50000 ./pgnpmf/28/equilibration/trajectory/dumpgen.tens_*.cfg mass type xs ys zs fx fy fz
dump_modify 2 element N20 N100

# thermo_style
thermo_style custom step temp press pe density ke etotal lx ly lz xlo xhi ylo yhi zlo zhi vol dt time cpu tpcpu spcpu cpuremain

# run info
timestep 0.5
thermo 200

# fix

fix 1 all momentum 1000 linear 1 1 1 angular
variable T equal 300
fix 2 all nvt temp 300 370000 100.0

run 100000
Generated 0 of 1 mixed pair_coeff terms from geometric mixing rule
Unused restart file global fix info:
  fix style: npt, fix ID: 5
  update every 1 steps, delay 0 steps, check yes
Step          Temp          Press          PotEng        Density         KinEng         TotEng           Lx             Ly             Lz            Xlo            Xhi            Ylo            Yhi            Zlo            Zhi           Volume           Dt            Time           CPU           T/CPU          S/CPU         CPULeft
17210000   306.73903      0.26203309    -38728847       0.50591305     913.41646     -38727934       1078.325       1078.325       1078.325       1960.8375      3039.1625      1960.8375      3039.1625      1960.8375      3039.1625      1.25386e+09    0.5            8810000        0              0              0              0
Averages over the last 251 of 501 rows, steps 17260000 to 17310000:
Temp Press PotEng Density KinEng TotEng Lx Ly Lz Xlo Xhi Ylo Yhi Zlo Zhi Volume Dt
277431 55.4803 -3.85122e+07 0.505913 826143 -3.76861e+07 1078.33 1078.33 1078.33 1960.84 3039.16 1960.84 3039.16 1960.84 3039.16 1.25386e+09 0.5
Loop time of 10.282 on 4 procs for 100000 steps with 1000 atoms

unfix 2

fix 3 all nvt temp 370000 370000 $(100.0*dt) #iso 1.0 1.0 $(1000.0*dt)
fix 3 all nvt temp 370000 370000 50

run 200000
Generated 0 of 1 mixed pair_coeff terms from geometric mixing rule
Step          Temp          Press          PotEng        Density         KinEng         TotEng           Lx             Ly             Lz            Xlo            Xhi            Ylo            Yhi            Zlo            Zhi           Volume           Dt            Time           CPU           T/CPU          S/CPU         CPULeft
17310000   359467.73      35.248271     -37715873       0.50591305     1070433.5     -36645440       1078.325       1078.325       1078.325       1960.8375      3039.1625      1960.8375      3039.1625      1960.8375      3039.1625      1.25386e+09    0.5            8860000        0              0              0              0
Averages over the last 501 of 1001 rows, steps 17410000 to 17510000:
Temp Press PotEng Density KinEng TotEng Lx Ly Lz Xlo Xhi Ylo Yhi Zlo Zhi Volume Dt
370118 1.62735 -3.6121e+07 0.505913 1.10215e+06 -3.50189e+07 1078.33 1078.33 1078.33 1960.84 3039.16 1960.84 3039.16 1960.84 3039.16 1.25386e+09 0.5
Loop time of 20.5344 on 4 procs for 200000 steps with 1000 atoms

unfix 3

fix 4 all nvt temp 370000 300 100.0

run 100000
Generated 0 of 1 mixed pair_coeff terms from geometric mixing rule
Step          Temp          Press          PotEng        Density         KinEng         TotEng           Lx             Ly             Lz            Xlo            Xhi            Ylo            Yhi            Zlo            Zhi           Volume           Dt            Time           CPU           T/CPU          S/CPU         CPULeft
17510000   381727.57      17.759655     -36118956       0.50591305     1136719.5     -34982236       1078.325       1078.325       1078.325       1960.8375      3039.1625      1960.8375      3039.1625      1960.8375      3039.1625      1.25386e+09    0.5            8960000        0              0              0              0
Averages over the last 251 of 501 rows, steps 17560000 to 17610000:
Temp Press PotEng Density KinEng TotEng Lx Ly Lz Xlo Xhi Ylo Yhi Zlo Zhi Volume Dt
93121.1 -112.486 -3.72979e+07 0.505913 277299 -3.70206e+07 1078.33 1078.33 1078.33 1960.84 3039.16 1960.84 3039.16 1960.84 3039.16 1.25386e+09 0.5
Loop time of 10.1344 on 4 procs for 100000 steps with 1000 atoms

unfix 4

fix 5 all npt temp 300 300 $(100.0*dt) iso 1.0 1.0 $(1000.0*dt)
fix 5 all npt temp 300 300 50 iso 1.0 1.0 $(1000.0*dt)
fix 5 all npt temp 300 300 50 iso 1.0 1.0 500

run 300000
Generated 0 of 1 mixed pair_coeff terms from geometric mixing rule
Step          Temp          Press          PotEng        Density         KinEng         TotEng           Lx             Ly             Lz            Xlo            Xhi            Ylo            Yhi            Zlo            Zhi           Volume           Dt            Time           CPU           T/CPU          S/CPU         CPULeft
17610000   1351.4373     -122.07276     -37817281       0.50591305     4024.3495     -37813256       1078.325       1078.325       1078.325       1960.8375      3039.1625      1960.8375      3039.1625      1960.8375      3039.1625      1.25386e+09    0.5            9010000        0              0              0              0
Averages over the last 751 of 1501 rows, steps 17760000 to 17910000:
Temp Press PotEng Density KinEng TotEng Lx Ly Lz Xlo Xhi Ylo Yhi Zlo Zhi Volume Dt
309.763 1.02161 -3.85187e+07 0.523832 922.42 -3.85178e+07 1065.89 1065.89 1065.89 1967.06 3032.94 1967.06 3032.94 1967.06 3032.94 1.21098e+09 0.5
Loop time of 35.4242 on 4 procs for 300000 steps with 1000 atoms

# run_style
run_style verlet

# write restart
write_restart ./pgnpmf/28/equpmf25.res
System init for write_restart ...
Generated 0 of 1 mixed pair_coeff terms from geometric mixing rule
