LAMMPS (23 Jun 2022 - Update 1)
# Read restart
read_restart ./pgnpmf/19/equpmf70.res
Reading restart file ...
  restart file = 23 Jun 2022, LAMMPS = 23 Jun 2022
  restoring atom style atomic from restart
  orthogonal box = (2129.1687 2129.1687 2129.1687) to (2870.8313 2870.8313 2870.8313)
  restoring pair style table from restart
  1000 atoms
  read_restart CPU = 0.005 seconds

# Settings

pair_style table spline 9941

pair_coeff 1 1 ./pgnpmf/N20.txt DE_GNP 75.6
pair_coeff 2 2 ./pgnpmf/N100.txt DE_GNP 115.92
pair_coeff 1 2 ./pgnpmf/mixed_potential.txt DE_GNP 95.66

#Neigh_list Calc Frequency

neigh_modify delay 0 every 1 check yes

# Saving Frequency (50 frames)

variable ts_save equal 5000

# Dump
#dump_modify 1 first no sort id
dump 2 all cfg 50000 ./pgnpmf/19/equilibration/trajectory/dumpgen.tens_*.cfg mass type xs ys zs fx fy fz
dump_modify 2 element N20 N100

# thermo_style
thermo_style custom step temp press pe density ke etotal lx ly lz xlo xhi ylo yhi zlo zhi vol dt time cpu tpcpu spcpu cpuremain

# run info
timestep 0.5
thermo 200

# fix

fix 1 all momentum 1000 linear 1 1 1 angular
variable T equal 300
fix 2 all nvt temp 300 370000 100.0

run 100000
Generated 0 of 1 mixed pair_coeff terms from geometric mixing rule
Unused restart file global fix info:
  fix style: npt, fix ID: 5
  update every 1 steps, delay 0 steps, check yes
Step          Temp          Press          PotEng        Density         KinEng         TotEng           Lx             Ly             Lz            Xlo            Xhi            Ylo            Yhi            Zlo            Zhi           Volume           Dt            Time           CPU           T/CPU          S/CPU         CPULeft
49410000   304.19239     -5.7462627     -56223715       1.6363998      905.833       -56222809       741.66263      741.66263      741.66263      2129.1687      2870.8313      2129.1687      2870.8313      2129.1687      2870.8313      4.0796151e+08  0.5            24910000       0              0              0              0
Averages over the last 251 of 501 rows, steps 49460000 to 49510000:
Temp Press PotEng Density KinEng TotEng Lx Ly Lz Xlo Xhi Ylo Yhi Zlo Zhi Volume Dt
277206 1554.29 -5.54867e+07 1.6364 825472 -5.46612e+07 741.663 741.663 741.663 2129.17 2870.83 2129.17 2870.83 2129.17 2870.83 4.07962e+08 0.5
Loop time of 8.75001 on 4 procs for 100000 steps with 1000 atoms

unfix 2

fix 3 all nvt temp 370000 370000 $(100.0*dt) #iso 1.0 1.0 $(1000.0*dt)
fix 3 all nvt temp 370000 370000 50

run 200000
Generated 0 of 1 mixed pair_coeff terms from geometric mixing rule
Step          Temp          Press          PotEng        Density         KinEng         TotEng           Lx             Ly             Lz            Xlo            Xhi            Ylo            Yhi            Zlo            Zhi           Volume           Dt            Time           CPU           T/CPU          S/CPU         CPULeft
49510000   358882.47      1960.131      -55281282       1.6363998      1068690.7     -54212592       741.66263      741.66263      741.66263      2129.1687      2870.8313      2129.1687      2870.8313      2129.1687      2870.8313      4.0796151e+08  0.5            24960000       0              0              0              0
Averages over the last 501 of 1001 rows, steps 49610000 to 49710000:
Temp Press PotEng Density KinEng TotEng Lx Ly Lz Xlo Xhi Ylo Yhi Zlo Zhi Volume Dt
369916 1786.87 -5.52461e+07 1.6364 1.10155e+06 -5.41445e+07 741.663 741.663 741.663 2129.17 2870.83 2129.17 2870.83 2129.17 2870.83 4.07962e+08 0.5
Loop time of 17.3284 on 4 procs for 200000 steps with 1000 atoms

unfix 3

fix 4 all nvt temp 370000 300 100.0

run 100000
Generated 0 of 1 mixed pair_coeff terms from geometric mixing rule
Step          Temp          Press          PotEng        Density         KinEng         TotEng           Lx             Ly             Lz            Xlo            Xhi            Ylo            Yhi            Zlo            Zhi           Volume           Dt            Time           CPU           T/CPU          S/CPU         CPULeft
49710000   360588.44      1743.3583     -55192946       1.6363998      1073770.8     -54119175       741.66263      741.66263      741.66263      2129.1687      2870.8313      2129.1687      2870.8313      2129.1687      2870.8313      4.0796151e+08  0.5            25060000       0              0              0              0
Averages over the last 251 of 501 rows, steps 49760000 to 49810000:
Temp Press PotEng Density KinEng TotEng Lx Ly Lz Xlo Xhi Ylo Yhi Zlo Zhi Volume Dt
93128.8 410.525 -5.60998e+07 1.6364 277322 -5.58225e+07 741.663 741.663 741.663 2129.17 2870.83 2129.17 2870.83 2129.17 2870.83 4.07962e+08 0.5
Loop time of 8.61987 on 4 procs for 100000 steps with 1000 atoms

unfix 4

fix 5 all npt temp 300 300 $(100.0*dt) iso 1.0 1.0 $(1000.0*dt)
fix 5 all npt temp 300 300 50 iso 1.0 1.0 $(1000.0*dt)
fix 5 all npt temp 300 300 50 iso 1.0 1.0 500

run 300000
Generated 0 of 1 mixed pair_coeff terms from geometric mixing rule
Step          Temp          Press          PotEng        Density         KinEng         TotEng           Lx             Ly             Lz            Xlo            Xhi            Ylo            Yhi            Zlo            Zhi           Volume           Dt            Time           CPU           T/CPU          S/CPU         CPULeft
49810000   1380.2391     -2.1024423     -56442381       1.6363998      4110.1164     -56438271       741.66263      741.66263      741.66263      2129.1687      2870.8313      2129.1687      2870.8313      2129.1687      2870.8313      4.0796151e+08  0.5            25110000       0              0              0              0
Averages over the last 751 of 1501 rows, steps 49960000 to 50110000:
Temp Press PotEng Density KinEng TotEng Lx Ly Lz Xlo Xhi Ylo Yhi Zlo Zhi Volume Dt
300.256 1.19406 -5.65232e+07 1.63722 894.111 -5.65223e+07 741.539 741.539 741.539 2129.23 2870.77 2129.23 2870.77 2129.23 2870.77 4.07758e+08 0.5
Loop time of 29.5681 on 4 procs for 300000 steps with 1000 atoms

# run_style
run_style verlet

# write restart
write_restart ./pgnpmf/19/equpmf71.res
System init for write_restart ...
Generated 0 of 1 mixed pair_coeff terms from geometric mixing rule
