LAMMPS (23 Jun 2022 - Update 1)
# Read restart
read_restart ./pgnpmf/19/equpmf54.res
Reading restart file ...
  restart file = 23 Jun 2022, LAMMPS = 23 Jun 2022
  restoring atom style atomic from restart
  orthogonal box = (2086.9885 2086.9885 2086.9885) to (2913.0115 2913.0115 2913.0115)
  restoring pair style table from restart
  1000 atoms
  read_restart CPU = 0.004 seconds

# Settings

pair_style table spline 9941

pair_coeff 1 1 ./pgnpmf/N20.txt DE_GNP 75.6
pair_coeff 2 2 ./pgnpmf/N100.txt DE_GNP 115.92
pair_coeff 1 2 ./pgnpmf/mixed_potential.txt DE_GNP 95.66

#Neigh_list Calc Frequency

neigh_modify delay 0 every 1 check yes

# Saving Frequency (50 frames)

variable ts_save equal 5000

# Dump
#dump_modify 1 first no sort id
dump 2 all cfg 50000 ./pgnpmf/19/equilibration/trajectory/dumpgen.tens_*.cfg mass type xs ys zs fx fy fz
dump_modify 2 element N20 N100

# thermo_style
thermo_style custom step temp press pe density ke etotal lx ly lz xlo xhi ylo yhi zlo zhi vol dt time cpu tpcpu spcpu cpuremain

# run info
timestep 0.5
thermo 200

# fix

fix 1 all momentum 1000 linear 1 1 1 angular
variable T equal 300
fix 2 all nvt temp 300 370000 100.0

run 100000
Generated 0 of 1 mixed pair_coeff terms from geometric mixing rule
Unused restart file global fix info:
  fix style: npt, fix ID: 5
  update every 1 steps, delay 0 steps, check yes
Step          Temp          Press          PotEng        Density         KinEng         TotEng           Lx             Ly             Lz            Xlo            Xhi            Ylo            Yhi            Zlo            Zhi           Volume           Dt            Time           CPU           T/CPU          S/CPU         CPULeft
38210000   308.28552     -6.1867325     -50711298       1.1844925      918.02163     -50710380       826.02291      826.02291      826.02291      2086.9885      2913.0115      2086.9885      2913.0115      2086.9885      2913.0115      5.6360688e+08  0.5            19310000       0              0              0              0
Averages over the last 251 of 501 rows, steps 38260000 to 38310000:
Temp Press PotEng Density KinEng TotEng Lx Ly Lz Xlo Xhi Ylo Yhi Zlo Zhi Volume Dt
277256 82.9427 -4.97751e+07 1.18449 825622 -4.89495e+07 826.023 826.023 826.023 2086.99 2913.01 2086.99 2913.01 2086.99 2913.01 5.63607e+08 0.5
Loop time of 8.50668 on 4 procs for 100000 steps with 1000 atoms

unfix 2

fix 3 all nvt temp 370000 370000 $(100.0*dt) #iso 1.0 1.0 $(1000.0*dt)
fix 3 all nvt temp 370000 370000 50

run 200000
Generated 0 of 1 mixed pair_coeff terms from geometric mixing rule
Step          Temp          Press          PotEng        Density         KinEng         TotEng           Lx             Ly             Lz            Xlo            Xhi            Ylo            Yhi            Zlo            Zhi           Volume           Dt            Time           CPU           T/CPU          S/CPU         CPULeft
38310000   371928.27      243.31349     -49345711       1.1844925      1107538.9     -48238172       826.02291      826.02291      826.02291      2086.9885      2913.0115      2086.9885      2913.0115      2086.9885      2913.0115      5.6360688e+08  0.5            19360000       0              0              0              0
Averages over the last 501 of 1001 rows, steps 38410000 to 38510000:
Temp Press PotEng Density KinEng TotEng Lx Ly Lz Xlo Xhi Ylo Yhi Zlo Zhi Volume Dt
370175 -25.2886 -4.8426e+07 1.18449 1.10232e+06 -4.73237e+07 826.023 826.023 826.023 2086.99 2913.01 2086.99 2913.01 2086.99 2913.01 5.63607e+08 0.5
Loop time of 17.164 on 4 procs for 200000 steps with 1000 atoms

unfix 3

fix 4 all nvt temp 370000 300 100.0

run 100000
Generated 0 of 1 mixed pair_coeff terms from geometric mixing rule
Step          Temp          Press          PotEng        Density         KinEng         TotEng           Lx             Ly             Lz            Xlo            Xhi            Ylo            Yhi            Zlo            Zhi           Volume           Dt            Time           CPU           T/CPU          S/CPU         CPULeft
38510000   353408.17      42.738954     -48663813       1.1844925      1052389.2     -47611423       826.02291      826.02291      826.02291      2086.9885      2913.0115      2086.9885      2913.0115      2086.9885      2913.0115      5.6360688e+08  0.5            19460000       0              0              0              0
Averages over the last 251 of 501 rows, steps 38560000 to 38610000:
Temp Press PotEng Density KinEng TotEng Lx Ly Lz Xlo Xhi Ylo Yhi Zlo Zhi Volume Dt
93101.7 -668.685 -4.98411e+07 1.18449 277241 -4.95639e+07 826.023 826.023 826.023 2086.99 2913.01 2086.99 2913.01 2086.99 2913.01 5.63607e+08 0.5
Loop time of 8.56094 on 4 procs for 100000 steps with 1000 atoms

unfix 4

fix 5 all npt temp 300 300 $(100.0*dt) iso 1.0 1.0 $(1000.0*dt)
fix 5 all npt temp 300 300 50 iso 1.0 1.0 $(1000.0*dt)
fix 5 all npt temp 300 300 50 iso 1.0 1.0 500

run 300000
Generated 0 of 1 mixed pair_coeff terms from geometric mixing rule
Step          Temp          Press          PotEng        Density         KinEng         TotEng           Lx             Ly             Lz            Xlo            Xhi            Ylo            Yhi            Zlo            Zhi           Volume           Dt            Time           CPU           T/CPU          S/CPU         CPULeft
38610000   1360.524      -774.55528     -50282045       1.1844925      4051.4081     -50277994       826.02291      826.02291      826.02291      2086.9885      2913.0115      2086.9885      2913.0115      2086.9885      2913.0115      5.6360688e+08  0.5            19510000       0              0              0              0
Averages over the last 751 of 1501 rows, steps 38760000 to 38910000:
Temp Press PotEng Density KinEng TotEng Lx Ly Lz Xlo Xhi Ylo Yhi Zlo Zhi Volume Dt
309.038 0.915203 -5.13648e+07 1.24527 920.261 -5.13638e+07 812.36 812.36 812.36 2093.82 2906.18 2093.82 2906.18 2093.82 2906.18 5.36102e+08 0.5
Loop time of 29.7426 on 4 procs for 300000 steps with 1000 atoms

# run_style
run_style verlet

# write restart
write_restart ./pgnpmf/19/equpmf55.res
System init for write_restart ...
Generated 0 of 1 mixed pair_coeff terms from geometric mixing rule
