LAMMPS (23 Jun 2022 - Update 1)
# Read restart
read_restart ./pgnpmf/19/equpmf5.res
Reading restart file ...
  restart file = 23 Jun 2022, LAMMPS = 23 Jun 2022
  restoring atom style atomic from restart
  orthogonal box = (1569.8792 1569.8792 1569.8792) to (3430.1208 3430.1208 3430.1208)
  restoring pair style table from restart
  1000 atoms
  read_restart CPU = 0.005 seconds

# Settings

pair_style table spline 9941

pair_coeff 1 1 ./pgnpmf/N20.txt DE_GNP 75.6
pair_coeff 2 2 ./pgnpmf/N100.txt DE_GNP 115.92
pair_coeff 1 2 ./pgnpmf/mixed_potential.txt DE_GNP 95.66

#Neigh_list Calc Frequency

neigh_modify delay 0 every 1 check yes

# Saving Frequency (50 frames)

variable ts_save equal 5000

# Dump
#dump_modify 1 first no sort id
dump 2 all cfg 50000 ./pgnpmf/19/equilibration/trajectory/dumpgen.tens_*.cfg mass type xs ys zs fx fy fz
dump_modify 2 element N20 N100

# thermo_style
thermo_style custom step temp press pe density ke etotal lx ly lz xlo xhi ylo yhi zlo zhi vol dt time cpu tpcpu spcpu cpuremain

# run info
timestep 0.5
thermo 200

# fix

fix 1 all momentum 1000 linear 1 1 1 angular
variable T equal 300
fix 2 all nvt temp 300 370000 100.0

run 100000
Generated 0 of 1 mixed pair_coeff terms from geometric mixing rule
Unused restart file global fix info:
  fix style: npt, fix ID: 5
  update every 1 steps, delay 0 steps, check yes
Step          Temp          Press          PotEng        Density         KinEng         TotEng           Lx             Ly             Lz            Xlo            Xhi            Ylo            Yhi            Zlo            Zhi           Volume           Dt            Time           CPU           T/CPU          S/CPU         CPULeft
3910000   312.78513      0.99040413    -6326415.2      0.10370522     931.42071     -6325483.8      1860.2415      1860.2415      1860.2415      1569.8792      3430.1208      1569.8792      3430.1208      1569.8792      3430.1208      6.437363e+09   0.5            2160000        0              0              0              0
Averages over the last 251 of 501 rows, steps 3960000 to 4010000:
Temp Press PotEng Density KinEng TotEng Lx Ly Lz Xlo Xhi Ylo Yhi Zlo Zhi Volume Dt
277599 2.89132 -6.01219e+06 0.103705 826642 -5.18555e+06 1860.24 1860.24 1860.24 1569.88 3430.12 1569.88 3430.12 1569.88 3430.12 6.43736e+09 0.5
Loop time of 3.03354 on 4 procs for 100000 steps with 1000 atoms

unfix 2

fix 3 all nvt temp 370000 370000 $(100.0*dt) #iso 1.0 1.0 $(1000.0*dt)
fix 3 all nvt temp 370000 370000 50

run 200000
Generated 0 of 1 mixed pair_coeff terms from geometric mixing rule
Step          Temp          Press          PotEng        Density         KinEng         TotEng           Lx             Ly             Lz            Xlo            Xhi            Ylo            Yhi            Zlo            Zhi           Volume           Dt            Time           CPU           T/CPU          S/CPU         CPULeft
4010000   355262.05      5.1714746     -5892765.3      0.10370522     1057909.7     -4834855.6      1860.2415      1860.2415      1860.2415      1569.8792      3430.1208      1569.8792      3430.1208      1569.8792      3430.1208      6.437363e+09   0.5            2210000        0              0              0              0
Averages over the last 501 of 1001 rows, steps 4110000 to 4210000:
Temp Press PotEng Density KinEng TotEng Lx Ly Lz Xlo Xhi Ylo Yhi Zlo Zhi Volume Dt
370066 5.41917 -6.02346e+06 0.103705 1.10199e+06 -4.92146e+06 1860.24 1860.24 1860.24 1569.88 3430.12 1569.88 3430.12 1569.88 3430.12 6.43736e+09 0.5
Loop time of 6.0185 on 4 procs for 200000 steps with 1000 atoms

unfix 3

fix 4 all nvt temp 370000 300 100.0

run 100000
Generated 0 of 1 mixed pair_coeff terms from geometric mixing rule
Step          Temp          Press          PotEng        Density         KinEng         TotEng           Lx             Ly             Lz            Xlo            Xhi            Ylo            Yhi            Zlo            Zhi           Volume           Dt            Time           CPU           T/CPU          S/CPU         CPULeft
4210000   368865.35      5.6927891     -6084357.7      0.10370522     1098418       -4985939.6      1860.2415      1860.2415      1860.2415      1569.8792      3430.1208      1569.8792      3430.1208      1569.8792      3430.1208      6.437363e+09   0.5            2310000        0              0              0              0
Averages over the last 251 of 501 rows, steps 4260000 to 4310000:
Temp Press PotEng Density KinEng TotEng Lx Ly Lz Xlo Xhi Ylo Yhi Zlo Zhi Volume Dt
92938.7 -2.83515 -6.72957e+06 0.103705 276755 -6.45282e+06 1860.24 1860.24 1860.24 1569.88 3430.12 1569.88 3430.12 1569.88 3430.12 6.43736e+09 0.5
Loop time of 2.97017 on 4 procs for 100000 steps with 1000 atoms

unfix 4

fix 5 all npt temp 300 300 $(100.0*dt) iso 1.0 1.0 $(1000.0*dt)
fix 5 all npt temp 300 300 50 iso 1.0 1.0 $(1000.0*dt)
fix 5 all npt temp 300 300 50 iso 1.0 1.0 500

run 300000
Generated 0 of 1 mixed pair_coeff terms from geometric mixing rule
Step          Temp          Press          PotEng        Density         KinEng         TotEng           Lx             Ly             Lz            Xlo            Xhi            Ylo            Yhi            Zlo            Zhi           Volume           Dt            Time           CPU           T/CPU          S/CPU         CPULeft
4310000   1344.9265     -7.6183848     -7034883.2      0.10370522     4004.9616     -7030878.2      1860.2415      1860.2415      1860.2415      1569.8792      3430.1208      1569.8792      3430.1208      1569.8792      3430.1208      6.437363e+09   0.5            2360000        0              0              0              0
Averages over the last 751 of 1501 rows, steps 4460000 to 4610000:
Temp Press PotEng Density KinEng TotEng Lx Ly Lz Xlo Xhi Ylo Yhi Zlo Zhi Volume Dt
312.535 0.998111 -7.67704e+06 0.12344 930.677 -7.67611e+06 1755.55 1755.55 1755.55 1622.22 3377.78 1622.22 3377.78 1622.22 3377.78 5.41175e+09 0.5
Loop time of 12.6939 on 4 procs for 300000 steps with 1000 atoms

# run_style
run_style verlet

# write restart
write_restart ./pgnpmf/19/equpmf6.res
System init for write_restart ...
Generated 0 of 1 mixed pair_coeff terms from geometric mixing rule
