LAMMPS (23 Jun 2022 - Update 1)
# Read restart
read_restart ./pgnpmf/19/equpmf22.res
Reading restart file ...
  restart file = 23 Jun 2022, LAMMPS = 23 Jun 2022
  restoring atom style atomic from restart
  orthogonal box = (1907.9859 1907.9859 1907.9859) to (3092.0141 3092.0141 3092.0141)
  restoring pair style table from restart
  1000 atoms
  read_restart CPU = 0.004 seconds

# Settings

pair_style table spline 9941

pair_coeff 1 1 ./pgnpmf/N20.txt DE_GNP 75.6
pair_coeff 2 2 ./pgnpmf/N100.txt DE_GNP 115.92
pair_coeff 1 2 ./pgnpmf/mixed_potential.txt DE_GNP 95.66

#Neigh_list Calc Frequency

neigh_modify delay 0 every 1 check yes

# Saving Frequency (50 frames)

variable ts_save equal 5000

# Dump
#dump_modify 1 first no sort id
dump 2 all cfg 50000 ./pgnpmf/19/equilibration/trajectory/dumpgen.tens_*.cfg mass type xs ys zs fx fy fz
dump_modify 2 element N20 N100

# thermo_style
thermo_style custom step temp press pe density ke etotal lx ly lz xlo xhi ylo yhi zlo zhi vol dt time cpu tpcpu spcpu cpuremain

# run info
timestep 0.5
thermo 200

# fix

fix 1 all momentum 1000 linear 1 1 1 angular
variable T equal 300
fix 2 all nvt temp 300 370000 100.0

run 100000
Generated 0 of 1 mixed pair_coeff terms from geometric mixing rule
Unused restart file global fix info:
  fix style: npt, fix ID: 5
  update every 1 steps, delay 0 steps, check yes
Step          Temp          Press          PotEng        Density         KinEng         TotEng           Lx             Ly             Lz            Xlo            Xhi            Ylo            Yhi            Zlo            Zhi           Volume           Dt            Time           CPU           T/CPU          S/CPU         CPULeft
15810000   305.4003       1.9277114     -41056817       0.40218182     909.42994     -41055907       1184.0282      1184.0282      1184.0282      1907.9859      3092.0141      1907.9859      3092.0141      1907.9859      3092.0141      1.6599162e+09  0.5            8110000        0              0              0              0
Averages over the last 251 of 501 rows, steps 15860000 to 15910000:
Temp Press PotEng Density KinEng TotEng Lx Ly Lz Xlo Xhi Ylo Yhi Zlo Zhi Volume Dt
277673 1.69381 -4.02952e+07 0.402182 826862 -3.94683e+07 1184.03 1184.03 1184.03 1907.99 3092.01 1907.99 3092.01 1907.99 3092.01 1.65992e+09 0.5
Loop time of 8.41223 on 4 procs for 100000 steps with 1000 atoms

unfix 2

fix 3 all nvt temp 370000 370000 $(100.0*dt) #iso 1.0 1.0 $(1000.0*dt)
fix 3 all nvt temp 370000 370000 50

run 200000
Generated 0 of 1 mixed pair_coeff terms from geometric mixing rule
Step          Temp          Press          PotEng        Density         KinEng         TotEng           Lx             Ly             Lz            Xlo            Xhi            Ylo            Yhi            Zlo            Zhi           Volume           Dt            Time           CPU           T/CPU          S/CPU         CPULeft
15910000   386190.86      4.5978517     -39928081       0.40218182     1150010.4     -38778070       1184.0282      1184.0282      1184.0282      1907.9859      3092.0141      1907.9859      3092.0141      1907.9859      3092.0141      1.6599162e+09  0.5            8160000        0              0              0              0
Averages over the last 501 of 1001 rows, steps 16010000 to 16110000:
Temp Press PotEng Density KinEng TotEng Lx Ly Lz Xlo Xhi Ylo Yhi Zlo Zhi Volume Dt
369899 6.59303 -3.93052e+07 0.402182 1.1015e+06 -3.82037e+07 1184.03 1184.03 1184.03 1907.99 3092.01 1907.99 3092.01 1907.99 3092.01 1.65992e+09 0.5
Loop time of 16.9131 on 4 procs for 200000 steps with 1000 atoms

unfix 3

fix 4 all nvt temp 370000 300 100.0

run 100000
Generated 0 of 1 mixed pair_coeff terms from geometric mixing rule
Step          Temp          Press          PotEng        Density         KinEng         TotEng           Lx             Ly             Lz            Xlo            Xhi            Ylo            Yhi            Zlo            Zhi           Volume           Dt            Time           CPU           T/CPU          S/CPU         CPULeft
16110000   367350.7       6.4496555     -39275575       0.40218182     1093907.6     -38181667       1184.0282      1184.0282      1184.0282      1907.9859      3092.0141      1907.9859      3092.0141      1907.9859      3092.0141      1.6599162e+09  0.5            8260000        0              0              0              0
Averages over the last 251 of 501 rows, steps 16160000 to 16210000:
Temp Press PotEng Density KinEng TotEng Lx Ly Lz Xlo Xhi Ylo Yhi Zlo Zhi Volume Dt
93138.5 -40.9608 -4.10143e+07 0.402182 277351 -4.0737e+07 1184.03 1184.03 1184.03 1907.99 3092.01 1907.99 3092.01 1907.99 3092.01 1.65992e+09 0.5
Loop time of 8.60461 on 4 procs for 100000 steps with 1000 atoms

unfix 4

fix 5 all npt temp 300 300 $(100.0*dt) iso 1.0 1.0 $(1000.0*dt)
fix 5 all npt temp 300 300 50 iso 1.0 1.0 $(1000.0*dt)
fix 5 all npt temp 300 300 50 iso 1.0 1.0 500

run 300000
Generated 0 of 1 mixed pair_coeff terms from geometric mixing rule
Step          Temp          Press          PotEng        Density         KinEng         TotEng           Lx             Ly             Lz            Xlo            Xhi            Ylo            Yhi            Zlo            Zhi           Volume           Dt            Time           CPU           T/CPU          S/CPU         CPULeft
16210000   1365.4961     -42.567232     -41582377       0.40218182     4066.2142     -41578311       1184.0282      1184.0282      1184.0282      1907.9859      3092.0141      1907.9859      3092.0141      1907.9859      3092.0141      1.6599162e+09  0.5            8310000        0              0              0              0
Averages over the last 751 of 1501 rows, steps 16360000 to 16510000:
Temp Press PotEng Density KinEng TotEng Lx Ly Lz Xlo Xhi Ylo Yhi Zlo Zhi Volume Dt
306.81 1.03987 -4.18158e+07 0.40987 913.629 -4.18148e+07 1176.58 1176.58 1176.58 1911.71 3088.29 1911.71 3088.29 1911.71 3088.29 1.62879e+09 0.5
Loop time of 30.5179 on 4 procs for 300000 steps with 1000 atoms

# run_style
run_style verlet

# write restart
write_restart ./pgnpmf/19/equpmf23.res
System init for write_restart ...
Generated 0 of 1 mixed pair_coeff terms from geometric mixing rule
