LAMMPS (23 Jun 2022 - Update 1)
# Read restart
read_restart ./pgnpmf/19/equpmf9.res
Reading restart file ...
  restart file = 23 Jun 2022, LAMMPS = 23 Jun 2022
  restoring atom style atomic from restart
  orthogonal box = (1747.1723 1747.1723 1747.1723) to (3252.8277 3252.8277 3252.8277)
  restoring pair style table from restart
  1000 atoms
  read_restart CPU = 0.004 seconds

# Settings

pair_style table spline 9941

pair_coeff 1 1 ./pgnpmf/N20.txt DE_GNP 75.6
pair_coeff 2 2 ./pgnpmf/N100.txt DE_GNP 115.92
pair_coeff 1 2 ./pgnpmf/mixed_potential.txt DE_GNP 95.66

#Neigh_list Calc Frequency

neigh_modify delay 0 every 1 check yes

# Saving Frequency (50 frames)

variable ts_save equal 5000

# Dump
#dump_modify 1 first no sort id
dump 2 all cfg 50000 ./pgnpmf/19/equilibration/trajectory/dumpgen.tens_*.cfg mass type xs ys zs fx fy fz
dump_modify 2 element N20 N100

# thermo_style
thermo_style custom step temp press pe density ke etotal lx ly lz xlo xhi ylo yhi zlo zhi vol dt time cpu tpcpu spcpu cpuremain

# run info
timestep 0.5
thermo 200

# fix

fix 1 all momentum 1000 linear 1 1 1 angular
variable T equal 300
fix 2 all nvt temp 300 370000 100.0

run 100000
Generated 0 of 1 mixed pair_coeff terms from geometric mixing rule
Unused restart file global fix info:
  fix style: npt, fix ID: 5
  update every 1 steps, delay 0 steps, check yes
Step          Temp          Press          PotEng        Density         KinEng         TotEng           Lx             Ly             Lz            Xlo            Xhi            Ylo            Yhi            Zlo            Zhi           Volume           Dt            Time           CPU           T/CPU          S/CPU         CPULeft
6710000   313.43835      0.97705951    -15584419       0.19558332     933.36588     -15583486       1505.6554      1505.6554      1505.6554      1747.1723      3252.8277      1747.1723      3252.8277      1747.1723      3252.8277      3.4133183e+09  0.5            3560000        0              0              0              0
Averages over the last 251 of 501 rows, steps 6760000 to 6810000:
Temp Press PotEng Density KinEng TotEng Lx Ly Lz Xlo Xhi Ylo Yhi Zlo Zhi Volume Dt
277802 5.62443 -1.60003e+07 0.195583 827247 -1.51731e+07 1505.66 1505.66 1505.66 1747.17 3252.83 1747.17 3252.83 1747.17 3252.83 3.41332e+09 0.5
Loop time of 4.12663 on 4 procs for 100000 steps with 1000 atoms

unfix 2

fix 3 all nvt temp 370000 370000 $(100.0*dt) #iso 1.0 1.0 $(1000.0*dt)
fix 3 all nvt temp 370000 370000 50

run 200000
Generated 0 of 1 mixed pair_coeff terms from geometric mixing rule
Step          Temp          Press          PotEng        Density         KinEng         TotEng           Lx             Ly             Lz            Xlo            Xhi            Ylo            Yhi            Zlo            Zhi           Volume           Dt            Time           CPU           T/CPU          S/CPU         CPULeft
6810000   378782.14      9.9944276     -15684206       0.19558332     1127948.5     -14556257       1505.6554      1505.6554      1505.6554      1747.1723      3252.8277      1747.1723      3252.8277      1747.1723      3252.8277      3.4133183e+09  0.5            3610000        0              0              0              0
Averages over the last 501 of 1001 rows, steps 6910000 to 7010000:
Temp Press PotEng Density KinEng TotEng Lx Ly Lz Xlo Xhi Ylo Yhi Zlo Zhi Volume Dt
369742 4.02739 -1.47575e+07 0.195583 1.10103e+06 -1.36564e+07 1505.66 1505.66 1505.66 1747.17 3252.83 1747.17 3252.83 1747.17 3252.83 3.41332e+09 0.5
Loop time of 8.03008 on 4 procs for 200000 steps with 1000 atoms

unfix 3

fix 4 all nvt temp 370000 300 100.0

run 100000
Generated 0 of 1 mixed pair_coeff terms from geometric mixing rule
Step          Temp          Press          PotEng        Density         KinEng         TotEng           Lx             Ly             Lz            Xlo            Xhi            Ylo            Yhi            Zlo            Zhi           Volume           Dt            Time           CPU           T/CPU          S/CPU         CPULeft
7010000   364798.08      5.4092867     -14984052       0.19558332     1086306.4     -13897746       1505.6554      1505.6554      1505.6554      1747.1723      3252.8277      1747.1723      3252.8277      1747.1723      3252.8277      3.4133183e+09  0.5            3710000        0              0              0              0
Averages over the last 251 of 501 rows, steps 7060000 to 7110000:
Temp Press PotEng Density KinEng TotEng Lx Ly Lz Xlo Xhi Ylo Yhi Zlo Zhi Volume Dt
93116.6 -16.4346 -1.6624e+07 0.195583 277285 -1.63467e+07 1505.66 1505.66 1505.66 1747.17 3252.83 1747.17 3252.83 1747.17 3252.83 3.41332e+09 0.5
Loop time of 4.05273 on 4 procs for 100000 steps with 1000 atoms

unfix 4

fix 5 all npt temp 300 300 $(100.0*dt) iso 1.0 1.0 $(1000.0*dt)
fix 5 all npt temp 300 300 50 iso 1.0 1.0 $(1000.0*dt)
fix 5 all npt temp 300 300 50 iso 1.0 1.0 500

run 300000
Generated 0 of 1 mixed pair_coeff terms from geometric mixing rule
Step          Temp          Press          PotEng        Density         KinEng         TotEng           Lx             Ly             Lz            Xlo            Xhi            Ylo            Yhi            Zlo            Zhi           Volume           Dt            Time           CPU           T/CPU          S/CPU         CPULeft
7110000   1359.3949     -21.895141     -17236437       0.19558332     4048.0459     -17232389       1505.6554      1505.6554      1505.6554      1747.1723      3252.8277      1747.1723      3252.8277      1747.1723      3252.8277      3.4133183e+09  0.5            3760000        0              0              0              0
Averages over the last 751 of 1501 rows, steps 7260000 to 7410000:
Temp Press PotEng Density KinEng TotEng Lx Ly Lz Xlo Xhi Ylo Yhi Zlo Zhi Volume Dt
314.574 1.00263 -1.78138e+07 0.214788 936.747 -1.78129e+07 1459.43 1459.43 1459.43 1770.28 3229.72 1770.28 3229.72 1770.28 3229.72 3.10868e+09 0.5
Loop time of 16.2501 on 4 procs for 300000 steps with 1000 atoms

# run_style
run_style verlet

# write restart
write_restart ./pgnpmf/19/equpmf10.res
System init for write_restart ...
Generated 0 of 1 mixed pair_coeff terms from geometric mixing rule
