LAMMPS (23 Jun 2022 - Update 1)
# Read restart
read_restart ./pgnpmf/19/equpmf13.res
Reading restart file ...
  restart file = 23 Jun 2022, LAMMPS = 23 Jun 2022
  restoring atom style atomic from restart
  orthogonal box = (1834.2942 1834.2942 1834.2942) to (3165.7058 3165.7058 3165.7058)
  restoring pair style table from restart
  1000 atoms
  read_restart CPU = 0.006 seconds

# Settings

pair_style table spline 9941

pair_coeff 1 1 ./pgnpmf/N20.txt DE_GNP 75.6
pair_coeff 2 2 ./pgnpmf/N100.txt DE_GNP 115.92
pair_coeff 1 2 ./pgnpmf/mixed_potential.txt DE_GNP 95.66

#Neigh_list Calc Frequency

neigh_modify delay 0 every 1 check yes

# Saving Frequency (50 frames)

variable ts_save equal 5000

# Dump
#dump_modify 1 first no sort id
dump 2 all cfg 50000 ./pgnpmf/19/equilibration/trajectory/dumpgen.tens_*.cfg mass type xs ys zs fx fy fz
dump_modify 2 element N20 N100

# thermo_style
thermo_style custom step temp press pe density ke etotal lx ly lz xlo xhi ylo yhi zlo zhi vol dt time cpu tpcpu spcpu cpuremain

# run info
timestep 0.5
thermo 200

# fix

fix 1 all momentum 1000 linear 1 1 1 angular
variable T equal 300
fix 2 all nvt temp 300 370000 100.0

run 100000
Generated 0 of 1 mixed pair_coeff terms from geometric mixing rule
Unused restart file global fix info:
  fix style: npt, fix ID: 5
  update every 1 steps, delay 0 steps, check yes
Step          Temp          Press          PotEng        Density         KinEng         TotEng           Lx             Ly             Lz            Xlo            Xhi            Ylo            Yhi            Zlo            Zhi           Volume           Dt            Time           CPU           T/CPU          S/CPU         CPULeft
9510000   311.03487      1.0308139     -26642432       0.28286005     926.20872     -26641506       1331.4116      1331.4116      1331.4116      1834.2942      3165.7058      1834.2942      3165.7058      1834.2942      3165.7058      2.3601357e+09  0.5            4960000        0              0              0              0
Averages over the last 251 of 501 rows, steps 9560000 to 9610000:
Temp Press PotEng Density KinEng TotEng Lx Ly Lz Xlo Xhi Ylo Yhi Zlo Zhi Volume Dt
277478 6.10561 -2.68237e+07 0.28286 826282 -2.59974e+07 1331.41 1331.41 1331.41 1834.29 3165.71 1834.29 3165.71 1834.29 3165.71 2.36014e+09 0.5
Loop time of 5.40727 on 4 procs for 100000 steps with 1000 atoms

unfix 2

fix 3 all nvt temp 370000 370000 $(100.0*dt) #iso 1.0 1.0 $(1000.0*dt)
fix 3 all nvt temp 370000 370000 50

run 200000
Generated 0 of 1 mixed pair_coeff terms from geometric mixing rule
Step          Temp          Press          PotEng        Density         KinEng         TotEng           Lx             Ly             Lz            Xlo            Xhi            Ylo            Yhi            Zlo            Zhi           Volume           Dt            Time           CPU           T/CPU          S/CPU         CPULeft
9610000   364089.13      9.8131899     -26269593       0.28286005     1084195.2     -25185397       1331.4116      1331.4116      1331.4116      1834.2942      3165.7058      1834.2942      3165.7058      1834.2942      3165.7058      2.3601357e+09  0.5            5010000        0              0              0              0
Averages over the last 501 of 1001 rows, steps 9710000 to 9810000:
Temp Press PotEng Density KinEng TotEng Lx Ly Lz Xlo Xhi Ylo Yhi Zlo Zhi Volume Dt
369731 1.37053 -2.55279e+07 0.28286 1.101e+06 -2.44269e+07 1331.41 1331.41 1331.41 1834.29 3165.71 1834.29 3165.71 1834.29 3165.71 2.36014e+09 0.5
Loop time of 11.2194 on 4 procs for 200000 steps with 1000 atoms

unfix 3

fix 4 all nvt temp 370000 300 100.0

run 100000
Generated 0 of 1 mixed pair_coeff terms from geometric mixing rule
Step          Temp          Press          PotEng        Density         KinEng         TotEng           Lx             Ly             Lz            Xlo            Xhi            Ylo            Yhi            Zlo            Zhi           Volume           Dt            Time           CPU           T/CPU          S/CPU         CPULeft
9810000   370887.51      5.1653286     -25864484       0.28286005     1104439.7     -24760045       1331.4116      1331.4116      1331.4116      1834.2942      3165.7058      1834.2942      3165.7058      1834.2942      3165.7058      2.3601357e+09  0.5            5110000        0              0              0              0
Averages over the last 251 of 501 rows, steps 9860000 to 9910000:
Temp Press PotEng Density KinEng TotEng Lx Ly Lz Xlo Xhi Ylo Yhi Zlo Zhi Volume Dt
93352.4 -29.0907 -2.77695e+07 0.28286 277988 -2.74916e+07 1331.41 1331.41 1331.41 1834.29 3165.71 1834.29 3165.71 1834.29 3165.71 2.36014e+09 0.5
Loop time of 5.68538 on 4 procs for 100000 steps with 1000 atoms

unfix 4

fix 5 all npt temp 300 300 $(100.0*dt) iso 1.0 1.0 $(1000.0*dt)
fix 5 all npt temp 300 300 50 iso 1.0 1.0 $(1000.0*dt)
fix 5 all npt temp 300 300 50 iso 1.0 1.0 500

run 300000
Generated 0 of 1 mixed pair_coeff terms from geometric mixing rule
Step          Temp          Press          PotEng        Density         KinEng         TotEng           Lx             Ly             Lz            Xlo            Xhi            Ylo            Yhi            Zlo            Zhi           Volume           Dt            Time           CPU           T/CPU          S/CPU         CPULeft
9910000   1355.6291     -34.745766     -28318524       0.28286005     4036.8321     -28314488       1331.4116      1331.4116      1331.4116      1834.2942      3165.7058      1834.2942      3165.7058      1834.2942      3165.7058      2.3601357e+09  0.5            5160000        0              0              0              0
Averages over the last 751 of 1501 rows, steps 10060000 to 10210000:
Temp Press PotEng Density KinEng TotEng Lx Ly Lz Xlo Xhi Ylo Yhi Zlo Zhi Volume Dt
311.159 1.00136 -2.8752e+07 0.296495 926.577 -2.87511e+07 1310.69 1310.69 1310.69 1844.65 3155.35 1844.65 3155.35 1844.65 3155.35 2.25169e+09 0.5
Loop time of 20.8051 on 4 procs for 300000 steps with 1000 atoms

# run_style
run_style verlet

# write restart
write_restart ./pgnpmf/19/equpmf14.res
System init for write_restart ...
Generated 0 of 1 mixed pair_coeff terms from geometric mixing rule
