LAMMPS (23 Jun 2022 - Update 1)
# Read restart
read_restart ./pgnpmf/19/equpmf16.res
Reading restart file ...
  restart file = 23 Jun 2022, LAMMPS = 23 Jun 2022
  restoring atom style atomic from restart
  orthogonal box = (1866.9829 1866.9829 1866.9829) to (3133.0171 3133.0171 3133.0171)
  restoring pair style table from restart
  1000 atoms
  read_restart CPU = 0.004 seconds

# Settings

pair_style table spline 9941

pair_coeff 1 1 ./pgnpmf/N20.txt DE_GNP 75.6
pair_coeff 2 2 ./pgnpmf/N100.txt DE_GNP 115.92
pair_coeff 1 2 ./pgnpmf/mixed_potential.txt DE_GNP 95.66

#Neigh_list Calc Frequency

neigh_modify delay 0 every 1 check yes

# Saving Frequency (50 frames)

variable ts_save equal 5000

# Dump
#dump_modify 1 first no sort id
dump 2 all cfg 50000 ./pgnpmf/19/equilibration/trajectory/dumpgen.tens_*.cfg mass type xs ys zs fx fy fz
dump_modify 2 element N20 N100

# thermo_style
thermo_style custom step temp press pe density ke etotal lx ly lz xlo xhi ylo yhi zlo zhi vol dt time cpu tpcpu spcpu cpuremain

# run info
timestep 0.5
thermo 200

# fix

fix 1 all momentum 1000 linear 1 1 1 angular
variable T equal 300
fix 2 all nvt temp 300 370000 100.0

run 100000
Generated 0 of 1 mixed pair_coeff terms from geometric mixing rule
Unused restart file global fix info:
  fix style: npt, fix ID: 5
  update every 1 steps, delay 0 steps, check yes
Step          Temp          Press          PotEng        Density         KinEng         TotEng           Lx             Ly             Lz            Xlo            Xhi            Ylo            Yhi            Zlo            Zhi           Volume           Dt            Time           CPU           T/CPU          S/CPU         CPULeft
11610000   306.961        1.3224163     -34070683       0.3289821      914.07743     -34069769       1266.0342      1266.0342      1266.0342      1866.9829      3133.0171      1866.9829      3133.0171      1866.9829      3133.0171      2.0292537e+09  0.5            6010000        0              0              0              0
Averages over the last 251 of 501 rows, steps 11660000 to 11710000:
Temp Press PotEng Density KinEng TotEng Lx Ly Lz Xlo Xhi Ylo Yhi Zlo Zhi Volume Dt
277828 12.0184 -3.41011e+07 0.328982 827325 -3.32738e+07 1266.03 1266.03 1266.03 1866.98 3133.02 1866.98 3133.02 1866.98 3133.02 2.02925e+09 0.5
Loop time of 6.27504 on 4 procs for 100000 steps with 1000 atoms

unfix 2

fix 3 all nvt temp 370000 370000 $(100.0*dt) #iso 1.0 1.0 $(1000.0*dt)
fix 3 all nvt temp 370000 370000 50

run 200000
Generated 0 of 1 mixed pair_coeff terms from geometric mixing rule
Step          Temp          Press          PotEng        Density         KinEng         TotEng           Lx             Ly             Lz            Xlo            Xhi            Ylo            Yhi            Zlo            Zhi           Volume           Dt            Time           CPU           T/CPU          S/CPU         CPULeft
11710000   368878.95      37.616642     -33871766       0.3289821      1098458.5     -32773307       1266.0342      1266.0342      1266.0342      1866.9829      3133.0171      1866.9829      3133.0171      1866.9829      3133.0171      2.0292537e+09  0.5            6060000        0              0              0              0
Averages over the last 501 of 1001 rows, steps 11810000 to 11910000:
Temp Press PotEng Density KinEng TotEng Lx Ly Lz Xlo Xhi Ylo Yhi Zlo Zhi Volume Dt
370116 1.4362 -3.27135e+07 0.328982 1.10214e+06 -3.16114e+07 1266.03 1266.03 1266.03 1866.98 3133.02 1866.98 3133.02 1866.98 3133.02 2.02925e+09 0.5
Loop time of 12.9335 on 4 procs for 200000 steps with 1000 atoms

unfix 3

fix 4 all nvt temp 370000 300 100.0

run 100000
Generated 0 of 1 mixed pair_coeff terms from geometric mixing rule
Step          Temp          Press          PotEng        Density         KinEng         TotEng           Lx             Ly             Lz            Xlo            Xhi            Ylo            Yhi            Zlo            Zhi           Volume           Dt            Time           CPU           T/CPU          S/CPU         CPULeft
11910000   377023.22     -2.4114133     -32677731       0.3289821      1122710.8     -31555020       1266.0342      1266.0342      1266.0342      1866.9829      3133.0171      1866.9829      3133.0171      1866.9829      3133.0171      2.0292537e+09  0.5            6160000        0              0              0              0
Averages over the last 251 of 501 rows, steps 11960000 to 12010000:
Temp Press PotEng Density KinEng TotEng Lx Ly Lz Xlo Xhi Ylo Yhi Zlo Zhi Volume Dt
93002.8 -40.1409 -3.41021e+07 0.328982 276946 -3.38252e+07 1266.03 1266.03 1266.03 1866.98 3133.02 1866.98 3133.02 1866.98 3133.02 2.02925e+09 0.5
Loop time of 6.6105 on 4 procs for 100000 steps with 1000 atoms

unfix 4

fix 5 all npt temp 300 300 $(100.0*dt) iso 1.0 1.0 $(1000.0*dt)
fix 5 all npt temp 300 300 50 iso 1.0 1.0 $(1000.0*dt)
fix 5 all npt temp 300 300 50 iso 1.0 1.0 500

run 300000
Generated 0 of 1 mixed pair_coeff terms from geometric mixing rule
Step          Temp          Press          PotEng        Density         KinEng         TotEng           Lx             Ly             Lz            Xlo            Xhi            Ylo            Yhi            Zlo            Zhi           Volume           Dt            Time           CPU           T/CPU          S/CPU         CPULeft
12010000   1356.5843     -45.601906     -34657750       0.3289821      4039.6764     -34653710       1266.0342      1266.0342      1266.0342      1866.9829      3133.0171      1866.9829      3133.0171      1866.9829      3133.0171      2.0292537e+09  0.5            6210000        0              0              0              0
Averages over the last 751 of 1501 rows, steps 12160000 to 12310000:
Temp Press PotEng Density KinEng TotEng Lx Ly Lz Xlo Xhi Ylo Yhi Zlo Zhi Volume Dt
310.346 0.980331 -3.52994e+07 0.342192 924.157 -3.52985e+07 1249.54 1249.54 1249.54 1875.23 3124.77 1875.23 3124.77 1875.23 3124.77 1.95096e+09 0.5
Loop time of 24.3341 on 4 procs for 300000 steps with 1000 atoms

# run_style
run_style verlet

# write restart
write_restart ./pgnpmf/19/equpmf17.res
System init for write_restart ...
Generated 0 of 1 mixed pair_coeff terms from geometric mixing rule
