LAMMPS (23 Jun 2022 - Update 1)
# Read restart
read_restart ./pgnpmf/19/equpmf21.res
Reading restart file ...
  restart file = 23 Jun 2022, LAMMPS = 23 Jun 2022
  restoring atom style atomic from restart
  orthogonal box = (1902.7709 1902.7709 1902.7709) to (3097.2291 3097.2291 3097.2291)
  restoring pair style table from restart
  1000 atoms
  read_restart CPU = 0.004 seconds

# Settings

pair_style table spline 9941

pair_coeff 1 1 ./pgnpmf/N20.txt DE_GNP 75.6
pair_coeff 2 2 ./pgnpmf/N100.txt DE_GNP 115.92
pair_coeff 1 2 ./pgnpmf/mixed_potential.txt DE_GNP 95.66

#Neigh_list Calc Frequency

neigh_modify delay 0 every 1 check yes

# Saving Frequency (50 frames)

variable ts_save equal 5000

# Dump
#dump_modify 1 first no sort id
dump 2 all cfg 50000 ./pgnpmf/19/equilibration/trajectory/dumpgen.tens_*.cfg mass type xs ys zs fx fy fz
dump_modify 2 element N20 N100

# thermo_style
thermo_style custom step temp press pe density ke etotal lx ly lz xlo xhi ylo yhi zlo zhi vol dt time cpu tpcpu spcpu cpuremain

# run info
timestep 0.5
thermo 200

# fix

fix 1 all momentum 1000 linear 1 1 1 angular
variable T equal 300
fix 2 all nvt temp 300 370000 100.0

run 100000
Generated 0 of 1 mixed pair_coeff terms from geometric mixing rule
Unused restart file global fix info:
  fix style: npt, fix ID: 5
  update every 1 steps, delay 0 steps, check yes
Step          Temp          Press          PotEng        Density         KinEng         TotEng           Lx             Ly             Lz            Xlo            Xhi            Ylo            Yhi            Zlo            Zhi           Volume           Dt            Time           CPU           T/CPU          S/CPU         CPULeft
15110000   304.38533      1.290222      -40700056       0.39173807     906.40755     -40699149       1194.4582      1194.4582      1194.4582      1902.7709      3097.2291      1902.7709      3097.2291      1902.7709      3097.2291      1.7041696e+09  0.5            7760000        0              0              0              0
Averages over the last 251 of 501 rows, steps 15160000 to 15210000:
Temp Press PotEng Density KinEng TotEng Lx Ly Lz Xlo Xhi Ylo Yhi Zlo Zhi Volume Dt
277622 5.47075 -4.01496e+07 0.391738 826712 -3.93229e+07 1194.46 1194.46 1194.46 1902.77 3097.23 1902.77 3097.23 1902.77 3097.23 1.70417e+09 0.5
Loop time of 8.28459 on 4 procs for 100000 steps with 1000 atoms

unfix 2

fix 3 all nvt temp 370000 370000 $(100.0*dt) #iso 1.0 1.0 $(1000.0*dt)
fix 3 all nvt temp 370000 370000 50

run 200000
Generated 0 of 1 mixed pair_coeff terms from geometric mixing rule
Step          Temp          Press          PotEng        Density         KinEng         TotEng           Lx             Ly             Lz            Xlo            Xhi            Ylo            Yhi            Zlo            Zhi           Volume           Dt            Time           CPU           T/CPU          S/CPU         CPULeft
15210000   372738.91      3.2447869     -39768444       0.39173807     1109952.8     -38658491       1194.4582      1194.4582      1194.4582      1902.7709      3097.2291      1902.7709      3097.2291      1902.7709      3097.2291      1.7041696e+09  0.5            7810000        0              0              0              0
Averages over the last 501 of 1001 rows, steps 15310000 to 15410000:
Temp Press PotEng Density KinEng TotEng Lx Ly Lz Xlo Xhi Ylo Yhi Zlo Zhi Volume Dt
369995 0.816285 -3.88378e+07 0.391738 1.10178e+06 -3.77361e+07 1194.46 1194.46 1194.46 1902.77 3097.23 1902.77 3097.23 1902.77 3097.23 1.70417e+09 0.5
Loop time of 16.2171 on 4 procs for 200000 steps with 1000 atoms

unfix 3

fix 4 all nvt temp 370000 300 100.0

run 100000
Generated 0 of 1 mixed pair_coeff terms from geometric mixing rule
Step          Temp          Press          PotEng        Density         KinEng         TotEng           Lx             Ly             Lz            Xlo            Xhi            Ylo            Yhi            Zlo            Zhi           Volume           Dt            Time           CPU           T/CPU          S/CPU         CPULeft
15410000   372362.81      15.433464     -38856820       0.39173807     1108832.9     -37747987       1194.4582      1194.4582      1194.4582      1902.7709      3097.2291      1902.7709      3097.2291      1902.7709      3097.2291      1.7041696e+09  0.5            7910000        0              0              0              0
Averages over the last 251 of 501 rows, steps 15460000 to 15510000:
Temp Press PotEng Density KinEng TotEng Lx Ly Lz Xlo Xhi Ylo Yhi Zlo Zhi Volume Dt
93034.9 -40.1664 -4.00994e+07 0.391738 277042 -3.98224e+07 1194.46 1194.46 1194.46 1902.77 3097.23 1902.77 3097.23 1902.77 3097.23 1.70417e+09 0.5
Loop time of 8.0703 on 4 procs for 100000 steps with 1000 atoms

unfix 4

fix 5 all npt temp 300 300 $(100.0*dt) iso 1.0 1.0 $(1000.0*dt)
fix 5 all npt temp 300 300 50 iso 1.0 1.0 $(1000.0*dt)
fix 5 all npt temp 300 300 50 iso 1.0 1.0 500

run 300000
Generated 0 of 1 mixed pair_coeff terms from geometric mixing rule
Step          Temp          Press          PotEng        Density         KinEng         TotEng           Lx             Ly             Lz            Xlo            Xhi            Ylo            Yhi            Zlo            Zhi           Volume           Dt            Time           CPU           T/CPU          S/CPU         CPULeft
15510000   1364.2238     -37.353534     -40584032       0.39173807     4062.4254     -40579969       1194.4582      1194.4582      1194.4582      1902.7709      3097.2291      1902.7709      3097.2291      1902.7709      3097.2291      1.7041696e+09  0.5            7960000        0              0              0              0
Averages over the last 751 of 1501 rows, steps 15660000 to 15810000:
Temp Press PotEng Density KinEng TotEng Lx Ly Lz Xlo Xhi Ylo Yhi Zlo Zhi Volume Dt
306.204 0.966612 -4.09365e+07 0.40008 911.824 -4.09356e+07 1186.1 1186.1 1186.1 1906.95 3093.05 1906.95 3093.05 1906.95 3093.05 1.66865e+09 0.5
Loop time of 29.4808 on 4 procs for 300000 steps with 1000 atoms

# run_style
run_style verlet

# write restart
write_restart ./pgnpmf/19/equpmf22.res
System init for write_restart ...
Generated 0 of 1 mixed pair_coeff terms from geometric mixing rule
