LAMMPS (23 Jun 2022 - Update 1)
# Read restart
read_restart ./pgnpmf/19/equpmf8.res
Reading restart file ...
  restart file = 23 Jun 2022, LAMMPS = 23 Jun 2022
  restoring atom style atomic from restart
  orthogonal box = (1718.1913 1718.1913 1718.1913) to (3281.8087 3281.8087 3281.8087)
  restoring pair style table from restart
  1000 atoms
  read_restart CPU = 0.004 seconds

# Settings

pair_style table spline 9941

pair_coeff 1 1 ./pgnpmf/N20.txt DE_GNP 75.6
pair_coeff 2 2 ./pgnpmf/N100.txt DE_GNP 115.92
pair_coeff 1 2 ./pgnpmf/mixed_potential.txt DE_GNP 95.66

#Neigh_list Calc Frequency

neigh_modify delay 0 every 1 check yes

# Saving Frequency (50 frames)

variable ts_save equal 5000

# Dump
#dump_modify 1 first no sort id
dump 2 all cfg 50000 ./pgnpmf/19/equilibration/trajectory/dumpgen.tens_*.cfg mass type xs ys zs fx fy fz
dump_modify 2 element N20 N100

# thermo_style
thermo_style custom step temp press pe density ke etotal lx ly lz xlo xhi ylo yhi zlo zhi vol dt time cpu tpcpu spcpu cpuremain

# run info
timestep 0.5
thermo 200

# fix

fix 1 all momentum 1000 linear 1 1 1 angular
variable T equal 300
fix 2 all nvt temp 300 370000 100.0

run 100000
Generated 0 of 1 mixed pair_coeff terms from geometric mixing rule
Unused restart file global fix info:
  fix style: npt, fix ID: 5
  update every 1 steps, delay 0 steps, check yes
Step          Temp          Press          PotEng        Density         KinEng         TotEng           Lx             Ly             Lz            Xlo            Xhi            Ylo            Yhi            Zlo            Zhi           Volume           Dt            Time           CPU           T/CPU          S/CPU         CPULeft
6010000   311.63396      0.76717565    -13006061       0.17462932     927.99273     -13005133       1563.6174      1563.6174      1563.6174      1718.1913      3281.8087      1718.1913      3281.8087      1718.1913      3281.8087      3.8228869e+09  0.5            3210000        0              0              0              0
Averages over the last 251 of 501 rows, steps 6060000 to 6110000:
Temp Press PotEng Density KinEng TotEng Lx Ly Lz Xlo Xhi Ylo Yhi Zlo Zhi Volume Dt
277716 3.81081 -1.28827e+07 0.174629 826991 -1.20558e+07 1563.62 1563.62 1563.62 1718.19 3281.81 1718.19 3281.81 1718.19 3281.81 3.82289e+09 0.5
Loop time of 3.71288 on 4 procs for 100000 steps with 1000 atoms

unfix 2

fix 3 all nvt temp 370000 370000 $(100.0*dt) #iso 1.0 1.0 $(1000.0*dt)
fix 3 all nvt temp 370000 370000 50

run 200000
Generated 0 of 1 mixed pair_coeff terms from geometric mixing rule
Step          Temp          Press          PotEng        Density         KinEng         TotEng           Lx             Ly             Lz            Xlo            Xhi            Ylo            Yhi            Zlo            Zhi           Volume           Dt            Time           CPU           T/CPU          S/CPU         CPULeft
6110000   382842.46      9.3787685     -12559858       0.17462932     1140039.5     -11419819       1563.6174      1563.6174      1563.6174      1718.1913      3281.8087      1718.1913      3281.8087      1718.1913      3281.8087      3.8228869e+09  0.5            3260000        0              0              0              0
Averages over the last 501 of 1001 rows, steps 6210000 to 6310000:
Temp Press PotEng Density KinEng TotEng Lx Ly Lz Xlo Xhi Ylo Yhi Zlo Zhi Volume Dt
369956 4.73938 -1.27972e+07 0.174629 1.10166e+06 -1.16956e+07 1563.62 1563.62 1563.62 1718.19 3281.81 1718.19 3281.81 1718.19 3281.81 3.82289e+09 0.5
Loop time of 7.52006 on 4 procs for 200000 steps with 1000 atoms

unfix 3

fix 4 all nvt temp 370000 300 100.0

run 100000
Generated 0 of 1 mixed pair_coeff terms from geometric mixing rule
Step          Temp          Press          PotEng        Density         KinEng         TotEng           Lx             Ly             Lz            Xlo            Xhi            Ylo            Yhi            Zlo            Zhi           Volume           Dt            Time           CPU           T/CPU          S/CPU         CPULeft
6310000   365520.59      6.5199868     -13080295       0.17462932     1088457.9     -11991837       1563.6174      1563.6174      1563.6174      1718.1913      3281.8087      1718.1913      3281.8087      1718.1913      3281.8087      3.8228869e+09  0.5            3360000        0              0              0              0
Averages over the last 251 of 501 rows, steps 6360000 to 6410000:
Temp Press PotEng Density KinEng TotEng Lx Ly Lz Xlo Xhi Ylo Yhi Zlo Zhi Volume Dt
93231.3 -9.50661 -1.43248e+07 0.174629 277627 -1.40471e+07 1563.62 1563.62 1563.62 1718.19 3281.81 1718.19 3281.81 1718.19 3281.81 3.82289e+09 0.5
Loop time of 3.86912 on 4 procs for 100000 steps with 1000 atoms

unfix 4

fix 5 all npt temp 300 300 $(100.0*dt) iso 1.0 1.0 $(1000.0*dt)
fix 5 all npt temp 300 300 50 iso 1.0 1.0 $(1000.0*dt)
fix 5 all npt temp 300 300 50 iso 1.0 1.0 500

run 300000
Generated 0 of 1 mixed pair_coeff terms from geometric mixing rule
Step          Temp          Press          PotEng        Density         KinEng         TotEng           Lx             Ly             Lz            Xlo            Xhi            Ylo            Yhi            Zlo            Zhi           Volume           Dt            Time           CPU           T/CPU          S/CPU         CPULeft
6410000   1364.2912     -16.675212     -14820232       0.17462932     4062.6262     -14816170       1563.6174      1563.6174      1563.6174      1718.1913      3281.8087      1718.1913      3281.8087      1718.1913      3281.8087      3.8228869e+09  0.5            3410000        0              0              0              0
Averages over the last 751 of 1501 rows, steps 6560000 to 6710000:
Temp Press PotEng Density KinEng TotEng Lx Ly Lz Xlo Xhi Ylo Yhi Zlo Zhi Volume Dt
313.705 1.00746 -1.53986e+07 0.191009 934.158 -1.53977e+07 1517.64 1517.64 1517.64 1741.18 3258.82 1741.18 3258.82 1741.18 3258.82 3.49569e+09 0.5
Loop time of 15.1768 on 4 procs for 300000 steps with 1000 atoms

# run_style
run_style verlet

# write restart
write_restart ./pgnpmf/19/equpmf9.res
System init for write_restart ...
Generated 0 of 1 mixed pair_coeff terms from geometric mixing rule
