LAMMPS (23 Jun 2022 - Update 1)
# Read restart
read_restart ./pgnpmf/19/equpmf40.res
Reading restart file ...
  restart file = 23 Jun 2022, LAMMPS = 23 Jun 2022
  restoring atom style atomic from restart
  orthogonal box = (2008.5892 2008.5892 2008.5892) to (2991.4108 2991.4108 2991.4108)
  restoring pair style table from restart
  1000 atoms
  read_restart CPU = 0.004 seconds

# Settings

pair_style table spline 9941

pair_coeff 1 1 ./pgnpmf/N20.txt DE_GNP 75.6
pair_coeff 2 2 ./pgnpmf/N100.txt DE_GNP 115.92
pair_coeff 1 2 ./pgnpmf/mixed_potential.txt DE_GNP 95.66

#Neigh_list Calc Frequency

neigh_modify delay 0 every 1 check yes

# Saving Frequency (50 frames)

variable ts_save equal 5000

# Dump
#dump_modify 1 first no sort id
dump 2 all cfg 50000 ./pgnpmf/19/equilibration/trajectory/dumpgen.tens_*.cfg mass type xs ys zs fx fy fz
dump_modify 2 element N20 N100

# thermo_style
thermo_style custom step temp press pe density ke etotal lx ly lz xlo xhi ylo yhi zlo zhi vol dt time cpu tpcpu spcpu cpuremain

# run info
timestep 0.5
thermo 200

# fix

fix 1 all momentum 1000 linear 1 1 1 angular
variable T equal 300
fix 2 all nvt temp 300 370000 100.0

run 100000
Generated 0 of 1 mixed pair_coeff terms from geometric mixing rule
Unused restart file global fix info:
  fix style: npt, fix ID: 5
  update every 1 steps, delay 0 steps, check yes
Step          Temp          Press          PotEng        Density         KinEng         TotEng           Lx             Ly             Lz            Xlo            Xhi            Ylo            Yhi            Zlo            Zhi           Volume           Dt            Time           CPU           T/CPU          S/CPU         CPULeft
28410000   304.97476      1.2004371     -47537382       0.70320909     908.16274     -47536474       982.82163      982.82163      982.82163      2008.5892      2991.4108      2008.5892      2991.4108      2008.5892      2991.4108      9.4934512e+08  0.5            14410000       0              0              0              0
Averages over the last 251 of 501 rows, steps 28460000 to 28510000:
Temp Press PotEng Density KinEng TotEng Lx Ly Lz Xlo Xhi Ylo Yhi Zlo Zhi Volume Dt
277499 75.7096 -4.6819e+07 0.703209 826346 -4.59927e+07 982.822 982.822 982.822 2008.59 2991.41 2008.59 2991.41 2008.59 2991.41 9.49345e+08 0.5
Loop time of 10.749 on 4 procs for 100000 steps with 1000 atoms

unfix 2

fix 3 all nvt temp 370000 370000 $(100.0*dt) #iso 1.0 1.0 $(1000.0*dt)
fix 3 all nvt temp 370000 370000 50

run 200000
Generated 0 of 1 mixed pair_coeff terms from geometric mixing rule
Step          Temp          Press          PotEng        Density         KinEng         TotEng           Lx             Ly             Lz            Xlo            Xhi            Ylo            Yhi            Zlo            Zhi           Volume           Dt            Time           CPU           T/CPU          S/CPU         CPULeft
28510000   380659.91      18.926159     -46367020       0.70320909     1133540.2     -45233479       982.82163      982.82163      982.82163      2008.5892      2991.4108      2008.5892      2991.4108      2008.5892      2991.4108      9.4934512e+08  0.5            14460000       0              0              0              0
Averages over the last 501 of 1001 rows, steps 28610000 to 28710000:
Temp Press PotEng Density KinEng TotEng Lx Ly Lz Xlo Xhi Ylo Yhi Zlo Zhi Volume Dt
369760 16.1702 -4.51852e+07 0.703209 1.10108e+06 -4.40842e+07 982.822 982.822 982.822 2008.59 2991.41 2008.59 2991.41 2008.59 2991.41 9.49345e+08 0.5
Loop time of 21.2547 on 4 procs for 200000 steps with 1000 atoms

unfix 3

fix 4 all nvt temp 370000 300 100.0

run 100000
Generated 0 of 1 mixed pair_coeff terms from geometric mixing rule
Step          Temp          Press          PotEng        Density         KinEng         TotEng           Lx             Ly             Lz            Xlo            Xhi            Ylo            Yhi            Zlo            Zhi           Volume           Dt            Time           CPU           T/CPU          S/CPU         CPULeft
28710000   370080         9.0645812     -44938025       0.70320909     1102035       -43835989       982.82163      982.82163      982.82163      2008.5892      2991.4108      2008.5892      2991.4108      2008.5892      2991.4108      9.4934512e+08  0.5            14560000       0              0              0              0
Averages over the last 251 of 501 rows, steps 28760000 to 28810000:
Temp Press PotEng Density KinEng TotEng Lx Ly Lz Xlo Xhi Ylo Yhi Zlo Zhi Volume Dt
93231.3 -173.25 -4.65506e+07 0.703209 277627 -4.6273e+07 982.822 982.822 982.822 2008.59 2991.41 2008.59 2991.41 2008.59 2991.41 9.49345e+08 0.5
Loop time of 10.6303 on 4 procs for 100000 steps with 1000 atoms

unfix 4

fix 5 all npt temp 300 300 $(100.0*dt) iso 1.0 1.0 $(1000.0*dt)
fix 5 all npt temp 300 300 50 iso 1.0 1.0 $(1000.0*dt)
fix 5 all npt temp 300 300 50 iso 1.0 1.0 500

run 300000
Generated 0 of 1 mixed pair_coeff terms from geometric mixing rule
Step          Temp          Press          PotEng        Density         KinEng         TotEng           Lx             Ly             Lz            Xlo            Xhi            Ylo            Yhi            Zlo            Zhi           Volume           Dt            Time           CPU           T/CPU          S/CPU         CPULeft
28810000   1350.5823     -187.54618     -46968898       0.70320909     4021.8036     -46964876       982.82163      982.82163      982.82163      2008.5892      2991.4108      2008.5892      2991.4108      2008.5892      2991.4108      9.4934512e+08  0.5            14610000       0              0              0              0
Averages over the last 751 of 1501 rows, steps 28960000 to 29110000:
Temp Press PotEng Density KinEng TotEng Lx Ly Lz Xlo Xhi Ylo Yhi Zlo Zhi Volume Dt
306.503 1.05321 -4.74798e+07 0.72113 912.712 -4.74789e+07 974.613 974.613 974.613 2012.69 2987.31 2012.69 2987.31 2012.69 2987.31 9.25756e+08 0.5
Loop time of 36.9465 on 4 procs for 300000 steps with 1000 atoms

# run_style
run_style verlet

# write restart
write_restart ./pgnpmf/19/equpmf41.res
System init for write_restart ...
Generated 0 of 1 mixed pair_coeff terms from geometric mixing rule
