LAMMPS (23 Jun 2022 - Update 1)
# Read restart
read_restart ./pgnpmf/19/equpmf59.res
Reading restart file ...
  restart file = 23 Jun 2022, LAMMPS = 23 Jun 2022
  restoring atom style atomic from restart
  orthogonal box = (2119.745 2119.745 2119.745) to (2880.255 2880.255 2880.255)
  restoring pair style table from restart
  1000 atoms
  read_restart CPU = 0.004 seconds

# Settings

pair_style table spline 9941

pair_coeff 1 1 ./pgnpmf/N20.txt DE_GNP 75.6
pair_coeff 2 2 ./pgnpmf/N100.txt DE_GNP 115.92
pair_coeff 1 2 ./pgnpmf/mixed_potential.txt DE_GNP 95.66

#Neigh_list Calc Frequency

neigh_modify delay 0 every 1 check yes

# Saving Frequency (50 frames)

variable ts_save equal 5000

# Dump
#dump_modify 1 first no sort id
dump 2 all cfg 50000 ./pgnpmf/19/equilibration/trajectory/dumpgen.tens_*.cfg mass type xs ys zs fx fy fz
dump_modify 2 element N20 N100

# thermo_style
thermo_style custom step temp press pe density ke etotal lx ly lz xlo xhi ylo yhi zlo zhi vol dt time cpu tpcpu spcpu cpuremain

# run info
timestep 0.5
thermo 200

# fix

fix 1 all momentum 1000 linear 1 1 1 angular
variable T equal 300
fix 2 all nvt temp 300 370000 100.0

run 100000
Generated 0 of 1 mixed pair_coeff terms from geometric mixing rule
Unused restart file global fix info:
  fix style: npt, fix ID: 5
  update every 1 steps, delay 0 steps, check yes
Step          Temp          Press          PotEng        Density         KinEng         TotEng           Lx             Ly             Lz            Xlo            Xhi            Ylo            Yhi            Zlo            Zhi           Volume           Dt            Time           CPU           T/CPU          S/CPU         CPULeft
41710000   303.25983      7.9735799     -54112652       1.5177272      903.05598     -54111749       760.51005      760.51005      760.51005      2119.745       2880.255       2119.745       2880.255       2119.745       2880.255       4.3986041e+08  0.5            21060000       0              0              0              0
Averages over the last 251 of 501 rows, steps 41760000 to 41810000:
Temp Press PotEng Density KinEng TotEng Lx Ly Lz Xlo Xhi Ylo Yhi Zlo Zhi Volume Dt
277472 703.584 -5.33821e+07 1.51773 826265 -5.25558e+07 760.51 760.51 760.51 2119.74 2880.26 2119.74 2880.26 2119.74 2880.26 4.3986e+08 0.5
Loop time of 8.41937 on 4 procs for 100000 steps with 1000 atoms

unfix 2

fix 3 all nvt temp 370000 370000 $(100.0*dt) #iso 1.0 1.0 $(1000.0*dt)
fix 3 all nvt temp 370000 370000 50

run 200000
Generated 0 of 1 mixed pair_coeff terms from geometric mixing rule
Step          Temp          Press          PotEng        Density         KinEng         TotEng           Lx             Ly             Lz            Xlo            Xhi            Ylo            Yhi            Zlo            Zhi           Volume           Dt            Time           CPU           T/CPU          S/CPU         CPULeft
41810000   364840.59      1007.0732     -53013543       1.5177272      1086433       -51927110       760.51005      760.51005      760.51005      2119.745       2880.255       2119.745       2880.255       2119.745       2880.255       4.3986041e+08  0.5            21110000       0              0              0              0
Averages over the last 501 of 1001 rows, steps 41910000 to 42010000:
Temp Press PotEng Density KinEng TotEng Lx Ly Lz Xlo Xhi Ylo Yhi Zlo Zhi Volume Dt
369922 638.796 -5.27782e+07 1.51773 1.10156e+06 -5.16766e+07 760.51 760.51 760.51 2119.74 2880.26 2119.74 2880.26 2119.74 2880.26 4.3986e+08 0.5
Loop time of 16.2692 on 4 procs for 200000 steps with 1000 atoms

unfix 3

fix 4 all nvt temp 370000 300 100.0

run 100000
Generated 0 of 1 mixed pair_coeff terms from geometric mixing rule
Step          Temp          Press          PotEng        Density         KinEng         TotEng           Lx             Ly             Lz            Xlo            Xhi            Ylo            Yhi            Zlo            Zhi           Volume           Dt            Time           CPU           T/CPU          S/CPU         CPULeft
42010000   379474.25      551.39518     -52725243       1.5177272      1130009.5     -51595234       760.51005      760.51005      760.51005      2119.745       2880.255       2119.745       2880.255       2119.745       2880.255       4.3986041e+08  0.5            21210000       0              0              0              0
Averages over the last 251 of 501 rows, steps 42060000 to 42110000:
Temp Press PotEng Density KinEng TotEng Lx Ly Lz Xlo Xhi Ylo Yhi Zlo Zhi Volume Dt
93083.2 -730.934 -5.34183e+07 1.51773 277186 -5.31411e+07 760.51 760.51 760.51 2119.74 2880.26 2119.74 2880.26 2119.74 2880.26 4.3986e+08 0.5
Loop time of 8.17218 on 4 procs for 100000 steps with 1000 atoms

unfix 4

fix 5 all npt temp 300 300 $(100.0*dt) iso 1.0 1.0 $(1000.0*dt)
fix 5 all npt temp 300 300 50 iso 1.0 1.0 $(1000.0*dt)
fix 5 all npt temp 300 300 50 iso 1.0 1.0 500

run 300000
Generated 0 of 1 mixed pair_coeff terms from geometric mixing rule
Step          Temp          Press          PotEng        Density         KinEng         TotEng           Lx             Ly             Lz            Xlo            Xhi            Ylo            Yhi            Zlo            Zhi           Volume           Dt            Time           CPU           T/CPU          S/CPU         CPULeft
42110000   1362.1817     -1119.2182     -53744811       1.5177272      4056.3445     -53740754       760.51005      760.51005      760.51005      2119.745       2880.255       2119.745       2880.255       2119.745       2880.255       4.3986041e+08  0.5            21260000       0              0              0              0
Averages over the last 751 of 1501 rows, steps 42260000 to 42410000:
Temp Press PotEng Density KinEng TotEng Lx Ly Lz Xlo Xhi Ylo Yhi Zlo Zhi Volume Dt
303.289 0.958845 -5.47232e+07 1.56981 903.144 -5.47223e+07 752.005 752.005 752.005 2124 2876 2124 2876 2124 2876 4.25267e+08 0.5
Loop time of 28.793 on 4 procs for 300000 steps with 1000 atoms

# run_style
run_style verlet

# write restart
write_restart ./pgnpmf/19/equpmf60.res
System init for write_restart ...
Generated 0 of 1 mixed pair_coeff terms from geometric mixing rule
