LAMMPS (23 Jun 2022 - Update 1)
# Read restart
read_restart ./pgnpmf/19/equpmf27.res
Reading restart file ...
  restart file = 23 Jun 2022, LAMMPS = 23 Jun 2022
  restoring atom style atomic from restart
  orthogonal box = (1935.5047 1935.5047 1935.5047) to (3064.4953 3064.4953 3064.4953)
  restoring pair style table from restart
  1000 atoms
  read_restart CPU = 0.004 seconds

# Settings

pair_style table spline 9941

pair_coeff 1 1 ./pgnpmf/N20.txt DE_GNP 75.6
pair_coeff 2 2 ./pgnpmf/N100.txt DE_GNP 115.92
pair_coeff 1 2 ./pgnpmf/mixed_potential.txt DE_GNP 95.66

#Neigh_list Calc Frequency

neigh_modify delay 0 every 1 check yes

# Saving Frequency (50 frames)

variable ts_save equal 5000

# Dump
#dump_modify 1 first no sort id
dump 2 all cfg 50000 ./pgnpmf/19/equilibration/trajectory/dumpgen.tens_*.cfg mass type xs ys zs fx fy fz
dump_modify 2 element N20 N100

# thermo_style
thermo_style custom step temp press pe density ke etotal lx ly lz xlo xhi ylo yhi zlo zhi vol dt time cpu tpcpu spcpu cpuremain

# run info
timestep 0.5
thermo 200

# fix

fix 1 all momentum 1000 linear 1 1 1 angular
variable T equal 300
fix 2 all nvt temp 300 370000 100.0

run 100000
Generated 0 of 1 mixed pair_coeff terms from geometric mixing rule
Unused restart file global fix info:
  fix style: npt, fix ID: 5
  update every 1 steps, delay 0 steps, check yes
Step          Temp          Press          PotEng        Density         KinEng         TotEng           Lx             Ly             Lz            Xlo            Xhi            Ylo            Yhi            Zlo            Zhi           Volume           Dt            Time           CPU           T/CPU          S/CPU         CPULeft
19310000   308.068        1.4172185     -41219822       0.46391418     917.37391     -41218905       1128.9906      1128.9906      1128.9906      1935.5047      3064.4953      1935.5047      3064.4953      1935.5047      3064.4953      1.4390337e+09  0.5            9860000        0              0              0              0
Averages over the last 251 of 501 rows, steps 19360000 to 19410000:
Temp Press PotEng Density KinEng TotEng Lx Ly Lz Xlo Xhi Ylo Yhi Zlo Zhi Volume Dt
277325 15.842 -4.11489e+07 0.463914 825826 -4.0323e+07 1128.99 1128.99 1128.99 1935.5 3064.5 1935.5 3064.5 1935.5 3064.5 1.43903e+09 0.5
Loop time of 8.59186 on 4 procs for 100000 steps with 1000 atoms

unfix 2

fix 3 all nvt temp 370000 370000 $(100.0*dt) #iso 1.0 1.0 $(1000.0*dt)
fix 3 all nvt temp 370000 370000 50

run 200000
Generated 0 of 1 mixed pair_coeff terms from geometric mixing rule
Step          Temp          Press          PotEng        Density         KinEng         TotEng           Lx             Ly             Lz            Xlo            Xhi            Ylo            Yhi            Zlo            Zhi           Volume           Dt            Time           CPU           T/CPU          S/CPU         CPULeft
19410000   359515.25     -8.0430937     -40596655       0.46391418     1070575       -39526080       1128.9906      1128.9906      1128.9906      1935.5047      3064.4953      1935.5047      3064.4953      1935.5047      3064.4953      1.4390337e+09  0.5            9910000        0              0              0              0
Averages over the last 501 of 1001 rows, steps 19510000 to 19610000:
Temp Press PotEng Density KinEng TotEng Lx Ly Lz Xlo Xhi Ylo Yhi Zlo Zhi Volume Dt
370118 5.75196 -3.85386e+07 0.463914 1.10215e+06 -3.74365e+07 1128.99 1128.99 1128.99 1935.5 3064.5 1935.5 3064.5 1935.5 3064.5 1.43903e+09 0.5
Loop time of 17.4209 on 4 procs for 200000 steps with 1000 atoms

unfix 3

fix 4 all nvt temp 370000 300 100.0

run 100000
Generated 0 of 1 mixed pair_coeff terms from geometric mixing rule
Step          Temp          Press          PotEng        Density         KinEng         TotEng           Lx             Ly             Lz            Xlo            Xhi            Ylo            Yhi            Zlo            Zhi           Volume           Dt            Time           CPU           T/CPU          S/CPU         CPULeft
19610000   354176.69     -6.255599      -38264249       0.46391418     1054677.7     -37209571       1128.9906      1128.9906      1128.9906      1935.5047      3064.4953      1935.5047      3064.4953      1935.5047      3064.4953      1.4390337e+09  0.5            10010000       0              0              0              0
Averages over the last 251 of 501 rows, steps 19660000 to 19710000:
Temp Press PotEng Density KinEng TotEng Lx Ly Lz Xlo Xhi Ylo Yhi Zlo Zhi Volume Dt
93176.1 -67.7402 -3.94827e+07 0.463914 277463 -3.92052e+07 1128.99 1128.99 1128.99 1935.5 3064.5 1935.5 3064.5 1935.5 3064.5 1.43903e+09 0.5
Loop time of 8.61374 on 4 procs for 100000 steps with 1000 atoms

unfix 4

fix 5 all npt temp 300 300 $(100.0*dt) iso 1.0 1.0 $(1000.0*dt)
fix 5 all npt temp 300 300 50 iso 1.0 1.0 $(1000.0*dt)
fix 5 all npt temp 300 300 50 iso 1.0 1.0 500

run 300000
Generated 0 of 1 mixed pair_coeff terms from geometric mixing rule
Step          Temp          Press          PotEng        Density         KinEng         TotEng           Lx             Ly             Lz            Xlo            Xhi            Ylo            Yhi            Zlo            Zhi           Volume           Dt            Time           CPU           T/CPU          S/CPU         CPULeft
19710000   1360.2267     -82.072846     -40095452       0.46391418     4050.5229     -40091402       1128.9906      1128.9906      1128.9906      1935.5047      3064.4953      1935.5047      3064.4953      1935.5047      3064.4953      1.4390337e+09  0.5            10060000       0              0              0              0
Averages over the last 751 of 1501 rows, steps 19860000 to 20010000:
Temp Press PotEng Density KinEng TotEng Lx Ly Lz Xlo Xhi Ylo Yhi Zlo Zhi Volume Dt
310.26 1.00011 -4.06475e+07 0.478053 923.902 -4.06466e+07 1117.75 1117.75 1117.75 1941.12 3058.88 1941.12 3058.88 1941.12 3058.88 1.39649e+09 0.5
Loop time of 30.567 on 4 procs for 300000 steps with 1000 atoms

# run_style
run_style verlet

# write restart
write_restart ./pgnpmf/19/equpmf28.res
System init for write_restart ...
Generated 0 of 1 mixed pair_coeff terms from geometric mixing rule
