LAMMPS (23 Jun 2022 - Update 1)
# Read restart
read_restart ./pgnpmf/19/equpmf19.res
Reading restart file ...
  restart file = 23 Jun 2022, LAMMPS = 23 Jun 2022
  restoring atom style atomic from restart
  orthogonal box = (1892.5787 1892.5787 1892.5787) to (3107.4213 3107.4213 3107.4213)
  restoring pair style table from restart
  1000 atoms
  read_restart CPU = 0.004 seconds

# Settings

pair_style table spline 9941

pair_coeff 1 1 ./pgnpmf/N20.txt DE_GNP 75.6
pair_coeff 2 2 ./pgnpmf/N100.txt DE_GNP 115.92
pair_coeff 1 2 ./pgnpmf/mixed_potential.txt DE_GNP 95.66

#Neigh_list Calc Frequency

neigh_modify delay 0 every 1 check yes

# Saving Frequency (50 frames)

variable ts_save equal 5000

# Dump
#dump_modify 1 first no sort id
dump 2 all cfg 50000 ./pgnpmf/19/equilibration/trajectory/dumpgen.tens_*.cfg mass type xs ys zs fx fy fz
dump_modify 2 element N20 N100

# thermo_style
thermo_style custom step temp press pe density ke etotal lx ly lz xlo xhi ylo yhi zlo zhi vol dt time cpu tpcpu spcpu cpuremain

# run info
timestep 0.5
thermo 200

# fix

fix 1 all momentum 1000 linear 1 1 1 angular
variable T equal 300
fix 2 all nvt temp 300 370000 100.0

run 100000
Generated 0 of 1 mixed pair_coeff terms from geometric mixing rule
Unused restart file global fix info:
  fix style: npt, fix ID: 5
  update every 1 steps, delay 0 steps, check yes
Step          Temp          Press          PotEng        Density         KinEng         TotEng           Lx             Ly             Lz            Xlo            Xhi            Ylo            Yhi            Zlo            Zhi           Volume           Dt            Time           CPU           T/CPU          S/CPU         CPULeft
13710000   306.93407      0.49349201    -39296669       0.37234752     913.99726     -39295755       1214.8427      1214.8427      1214.8427      1892.5787      3107.4213      1892.5787      3107.4213      1892.5787      3107.4213      1.7929168e+09  0.5            7060000        0              0              0              0
Averages over the last 251 of 501 rows, steps 13760000 to 13810000:
Temp Press PotEng Density KinEng TotEng Lx Ly Lz Xlo Xhi Ylo Yhi Zlo Zhi Volume Dt
277237 14.0357 -3.91922e+07 0.372348 825564 -3.83666e+07 1214.84 1214.84 1214.84 1892.58 3107.42 1892.58 3107.42 1892.58 3107.42 1.79292e+09 0.5
Loop time of 9.33435 on 4 procs for 100000 steps with 1000 atoms

unfix 2

fix 3 all nvt temp 370000 370000 $(100.0*dt) #iso 1.0 1.0 $(1000.0*dt)
fix 3 all nvt temp 370000 370000 50

run 200000
Generated 0 of 1 mixed pair_coeff terms from geometric mixing rule
Step          Temp          Press          PotEng        Density         KinEng         TotEng           Lx             Ly             Lz            Xlo            Xhi            Ylo            Yhi            Zlo            Zhi           Volume           Dt            Time           CPU           T/CPU          S/CPU         CPULeft
13810000   374681.48     -1.023009      -38733040       0.37234752     1115737.5     -37617302       1214.8427      1214.8427      1214.8427      1892.5787      3107.4213      1892.5787      3107.4213      1892.5787      3107.4213      1.7929168e+09  0.5            7110000        0              0              0              0
Averages over the last 501 of 1001 rows, steps 13910000 to 14010000:
Temp Press PotEng Density KinEng TotEng Lx Ly Lz Xlo Xhi Ylo Yhi Zlo Zhi Volume Dt
370101 1.58862 -3.77693e+07 0.372348 1.1021e+06 -3.66672e+07 1214.84 1214.84 1214.84 1892.58 3107.42 1892.58 3107.42 1892.58 3107.42 1.79292e+09 0.5
Loop time of 18.728 on 4 procs for 200000 steps with 1000 atoms

unfix 3

fix 4 all nvt temp 370000 300 100.0

run 100000
Generated 0 of 1 mixed pair_coeff terms from geometric mixing rule
Step          Temp          Press          PotEng        Density         KinEng         TotEng           Lx             Ly             Lz            Xlo            Xhi            Ylo            Yhi            Zlo            Zhi           Volume           Dt            Time           CPU           T/CPU          S/CPU         CPULeft
14010000   366132.89     -10.77294      -37750915       0.37234752     1090281.2     -36660633       1214.8427      1214.8427      1214.8427      1892.5787      3107.4213      1892.5787      3107.4213      1892.5787      3107.4213      1.7929168e+09  0.5            7210000        0              0              0              0
Averages over the last 251 of 501 rows, steps 14060000 to 14110000:
Temp Press PotEng Density KinEng TotEng Lx Ly Lz Xlo Xhi Ylo Yhi Zlo Zhi Volume Dt
93131.4 -41.2911 -3.92813e+07 0.372348 277329 -3.9004e+07 1214.84 1214.84 1214.84 1892.58 3107.42 1892.58 3107.42 1892.58 3107.42 1.79292e+09 0.5
Loop time of 9.23851 on 4 procs for 100000 steps with 1000 atoms

unfix 4

fix 5 all npt temp 300 300 $(100.0*dt) iso 1.0 1.0 $(1000.0*dt)
fix 5 all npt temp 300 300 50 iso 1.0 1.0 $(1000.0*dt)
fix 5 all npt temp 300 300 50 iso 1.0 1.0 500

run 300000
Generated 0 of 1 mixed pair_coeff terms from geometric mixing rule
Step          Temp          Press          PotEng        Density         KinEng         TotEng           Lx             Ly             Lz            Xlo            Xhi            Ylo            Yhi            Zlo            Zhi           Volume           Dt            Time           CPU           T/CPU          S/CPU         CPULeft
14110000   1361.4895     -50.577238     -39807473       0.37234752     4054.2833     -39803419       1214.8427      1214.8427      1214.8427      1892.5787      3107.4213      1892.5787      3107.4213      1892.5787      3107.4213      1.7929168e+09  0.5            7260000        0              0              0              0
Averages over the last 751 of 1501 rows, steps 14260000 to 14410000:
Temp Press PotEng Density KinEng TotEng Lx Ly Lz Xlo Xhi Ylo Yhi Zlo Zhi Volume Dt
308.426 0.986094 -4.02191e+07 0.382869 918.44 -4.02182e+07 1203.61 1203.61 1203.61 1898.19 3101.81 1898.19 3101.81 1898.19 3101.81 1.74366e+09 0.5
Loop time of 32.7858 on 4 procs for 300000 steps with 1000 atoms

# run_style
run_style verlet

# write restart
write_restart ./pgnpmf/19/equpmf20.res
System init for write_restart ...
Generated 0 of 1 mixed pair_coeff terms from geometric mixing rule
