LAMMPS (23 Jun 2022 - Update 1)
# Read restart
read_restart ./pgnpmf/900100/equpmf54.res
Reading restart file ...
  restart file = 23 Jun 2022, LAMMPS = 23 Jun 2022
  restoring atom style atomic from restart
  orthogonal box = (2230.1318 2230.1318 2230.1318) to (2769.8682 2769.8682 2769.8682)
  restoring pair style table from restart
  1000 atoms
  read_restart CPU = 0.005 seconds

# Settings

pair_style table spline 9941

pair_coeff 1 1 ./pgnpmf/N20.txt DE_GNP 75.6
pair_coeff 2 2 ./pgnpmf/N100.txt DE_GNP 115.92
pair_coeff 1 2 ./pgnpmf/mixed_potential.txt DE_GNP 95.66

#Neigh_list Calc Frequency

neigh_modify delay 0 every 1 check yes

# Saving Frequency (50 frames)

variable ts_save equal 5000

# Dump
#dump_modify 1 first no sort id
#dump 2 all cfg 50000 ./equilibration/trajectory/ovito/dumpgen.tens_*.cfg mass type xs ys zs fx fy fz

# thermo_style
thermo_style custom step temp press pe density ke etotal lx ly lz xlo xhi ylo yhi zlo zhi vol dt time cpu tpcpu spcpu cpuremain

# run info
timestep 0.1
thermo 200

# fix

fix 1 all momentum 1000 linear 1 1 1 angular
variable T equal 300
fix 2 all nvt temp 300 370000 100.0

run 100000
Generated 0 of 1 mixed pair_coeff terms from geometric mixing rule
Unused restart file global fix info:
  fix style: npt, fix ID: 5
  update every 1 steps, delay 0 steps, check yes
Step          Temp          Press          PotEng        Density         KinEng         TotEng           Lx             Ly             Lz            Xlo            Xhi            Ylo            Yhi            Zlo            Zhi           Volume           Dt            Time           CPU           T/CPU          S/CPU         CPULeft
37805000   303.5149       10.579056     -10247863       2.5543943      903.81554     -10246959       539.73632      539.73632      539.73632      2230.1318      2769.8682      2230.1318      2769.8682      2230.1318      2769.8682      1.5723344e+08  0.1            7705000        0              0              0              0
Averages over the last 251 of 501 rows, steps 37855000 to 37905000:
Temp Press PotEng Density KinEng TotEng Lx Ly Lz Xlo Xhi Ylo Yhi Zlo Zhi Volume Dt
277402 2049.11 -9.85875e+06 2.55439 826055 -9.0327e+06 539.736 539.736 539.736 2230.13 2769.87 2230.13 2769.87 2230.13 2769.87 1.57233e+08 0.1
Loop time of 17.9369 on 1 procs for 100000 steps with 1000 atoms

unfix 2

fix 3 all nvt temp 370000 370000 $(100.0*dt) #iso 1.0 1.0 $(1000.0*dt)
fix 3 all nvt temp 370000 370000 10

run 200000
Generated 0 of 1 mixed pair_coeff terms from geometric mixing rule
Step          Temp          Press          PotEng        Density         KinEng         TotEng           Lx             Ly             Lz            Xlo            Xhi            Ylo            Yhi            Zlo            Zhi           Volume           Dt            Time           CPU           T/CPU          S/CPU         CPULeft
37905000   372566.83      3256.038      -9642697        2.5543943      1109440.4     -8533256.6      539.73632      539.73632      539.73632      2230.1318      2769.8682      2230.1318      2769.8682      2230.1318      2769.8682      1.5723344e+08  0.1            7715000        0              0              0              0
Averages over the last 501 of 1001 rows, steps 38005000 to 38105000:
Temp Press PotEng Density KinEng TotEng Lx Ly Lz Xlo Xhi Ylo Yhi Zlo Zhi Volume Dt
370122 4084.89 -9.42166e+06 2.55439 1.10216e+06 -8.3195e+06 539.736 539.736 539.736 2230.13 2769.87 2230.13 2769.87 2230.13 2769.87 1.57233e+08 0.1
Loop time of 36.523 on 1 procs for 200000 steps with 1000 atoms

unfix 3

fix 4 all nvt temp 370000 300 100.0

run 100000
Generated 0 of 1 mixed pair_coeff terms from geometric mixing rule
Step          Temp          Press          PotEng        Density         KinEng         TotEng           Lx             Ly             Lz            Xlo            Xhi            Ylo            Yhi            Zlo            Zhi           Volume           Dt            Time           CPU           T/CPU          S/CPU         CPULeft
38105000   377998.32      4211.2506     -9365221.1      2.5543943      1125614.5     -8239606.6      539.73632      539.73632      539.73632      2230.1318      2769.8682      2230.1318      2769.8682      2230.1318      2769.8682      1.5723344e+08  0.1            7735000        0              0              0              0
Averages over the last 251 of 501 rows, steps 38155000 to 38205000:
Temp Press PotEng Density KinEng TotEng Lx Ly Lz Xlo Xhi Ylo Yhi Zlo Zhi Volume Dt
96591 1598.53 -9.92472e+06 2.55439 287632 -9.63709e+06 539.736 539.736 539.736 2230.13 2769.87 2230.13 2769.87 2230.13 2769.87 1.57233e+08 0.1
Loop time of 18.0599 on 1 procs for 100000 steps with 1000 atoms

unfix 4

fix 5 all npt temp 300 300 $(100.0*dt) iso 1.0 1.0 $(1000.0*dt)
fix 5 all npt temp 300 300 10 iso 1.0 1.0 $(1000.0*dt)
fix 5 all npt temp 300 300 10 iso 1.0 1.0 100

run 300000
Generated 0 of 1 mixed pair_coeff terms from geometric mixing rule
Step          Temp          Press          PotEng        Density         KinEng         TotEng           Lx             Ly             Lz            Xlo            Xhi            Ylo            Yhi            Zlo            Zhi           Volume           Dt            Time           CPU           T/CPU          S/CPU         CPULeft
38205000   5144.7228      614.72792     -10104994       2.5543943      15320.106     -10089674       539.73632      539.73632      539.73632      2230.1318      2769.8682      2230.1318      2769.8682      2230.1318      2769.8682      1.5723344e+08  0.1            7745000        0              0              0              0
Averages over the last 751 of 1501 rows, steps 38355000 to 38505000:
Temp Press PotEng Density KinEng TotEng Lx Ly Lz Xlo Xhi Ylo Yhi Zlo Zhi Volume Dt
304.559 0.720434 -1.02356e+07 2.55369 906.926 -1.02347e+07 539.786 539.786 539.786 2230.11 2769.89 2230.11 2769.89 2230.11 2769.89 1.57277e+08 0.1
Loop time of 63.0457 on 1 procs for 300000 steps with 1000 atoms

# run_style
run_style verlet

# write restart
write_restart ./pgnpmf/900100/equpmf55.res
System init for write_restart ...
Generated 0 of 1 mixed pair_coeff terms from geometric mixing rule
