LAMMPS (23 Jun 2022 - Update 1)
# Read restart
read_restart ./pgnpmf/900100/equpmf55.res
Reading restart file ...
  restart file = 23 Jun 2022, LAMMPS = 23 Jun 2022
  restoring atom style atomic from restart
  orthogonal box = (2230.2494 2230.2494 2230.2494) to (2769.7506 2769.7506 2769.7506)
  restoring pair style table from restart
  1000 atoms
  read_restart CPU = 0.011 seconds

# Settings

pair_style table spline 9941

pair_coeff 1 1 ./pgnpmf/N20.txt DE_GNP 75.6
pair_coeff 2 2 ./pgnpmf/N100.txt DE_GNP 115.92
pair_coeff 1 2 ./pgnpmf/mixed_potential.txt DE_GNP 95.66

#Neigh_list Calc Frequency

neigh_modify delay 0 every 1 check yes

# Saving Frequency (50 frames)

variable ts_save equal 5000

# Dump
#dump_modify 1 first no sort id
#dump 2 all cfg 50000 ./equilibration/trajectory/ovito/dumpgen.tens_*.cfg mass type xs ys zs fx fy fz

# thermo_style
thermo_style custom step temp press pe density ke etotal lx ly lz xlo xhi ylo yhi zlo zhi vol dt time cpu tpcpu spcpu cpuremain

# run info
timestep 0.1
thermo 200

# fix

fix 1 all momentum 1000 linear 1 1 1 angular
variable T equal 300
fix 2 all nvt temp 300 370000 100.0

run 100000
Generated 0 of 1 mixed pair_coeff terms from geometric mixing rule
Unused restart file global fix info:
  fix style: npt, fix ID: 5
  update every 1 steps, delay 0 steps, check yes
Step          Temp          Press          PotEng        Density         KinEng         TotEng           Lx             Ly             Lz            Xlo            Xhi            Ylo            Yhi            Zlo            Zhi           Volume           Dt            Time           CPU           T/CPU          S/CPU         CPULeft
38505000   303.62483     -2.1276459     -10250360       2.5577342      904.14288     -10249456       539.50128      539.50128      539.50128      2230.2494      2769.7506      2230.2494      2769.7506      2230.2494      2769.7506      1.5702813e+08  0.1            7775000        0              0              0              0
Averages over the last 251 of 501 rows, steps 38555000 to 38605000:
Temp Press PotEng Density KinEng TotEng Lx Ly Lz Xlo Xhi Ylo Yhi Zlo Zhi Volume Dt
277456 2133 -9.84545e+06 2.55773 826217 -9.01924e+06 539.501 539.501 539.501 2230.25 2769.75 2230.25 2769.75 2230.25 2769.75 1.57028e+08 0.1
Loop time of 17.7242 on 1 procs for 100000 steps with 1000 atoms

unfix 2

fix 3 all nvt temp 370000 370000 $(100.0*dt) #iso 1.0 1.0 $(1000.0*dt)
fix 3 all nvt temp 370000 370000 10

run 200000
Generated 0 of 1 mixed pair_coeff terms from geometric mixing rule
Step          Temp          Press          PotEng        Density         KinEng         TotEng           Lx             Ly             Lz            Xlo            Xhi            Ylo            Yhi            Zlo            Zhi           Volume           Dt            Time           CPU           T/CPU          S/CPU         CPULeft
38605000   371394.19      3326.3748     -9590293.1      2.5577342      1105948.5     -8484344.7      539.50128      539.50128      539.50128      2230.2494      2769.7506      2230.2494      2769.7506      2230.2494      2769.7506      1.5702813e+08  0.1            7785000        0              0              0              0
Averages over the last 501 of 1001 rows, steps 38705000 to 38805000:
Temp Press PotEng Density KinEng TotEng Lx Ly Lz Xlo Xhi Ylo Yhi Zlo Zhi Volume Dt
369787 4435.1 -9.42374e+06 2.55773 1.10116e+06 -8.32258e+06 539.501 539.501 539.501 2230.25 2769.75 2230.25 2769.75 2230.25 2769.75 1.57028e+08 0.1
Loop time of 36.0743 on 1 procs for 200000 steps with 1000 atoms

unfix 3

fix 4 all nvt temp 370000 300 100.0

run 100000
Generated 0 of 1 mixed pair_coeff terms from geometric mixing rule
Step          Temp          Press          PotEng        Density         KinEng         TotEng           Lx             Ly             Lz            Xlo            Xhi            Ylo            Yhi            Zlo            Zhi           Volume           Dt            Time           CPU           T/CPU          S/CPU         CPULeft
38805000   376012.99      4446.3384     -9408159.2      2.5577342      1119702.5     -8288456.7      539.50128      539.50128      539.50128      2230.2494      2769.7506      2230.2494      2769.7506      2230.2494      2769.7506      1.5702813e+08  0.1            7805000        0              0              0              0
Averages over the last 251 of 501 rows, steps 38855000 to 38905000:
Temp Press PotEng Density KinEng TotEng Lx Ly Lz Xlo Xhi Ylo Yhi Zlo Zhi Volume Dt
96650.8 1923.65 -9.94014e+06 2.55773 287810 -9.65233e+06 539.501 539.501 539.501 2230.25 2769.75 2230.25 2769.75 2230.25 2769.75 1.57028e+08 0.1
Loop time of 17.852 on 1 procs for 100000 steps with 1000 atoms

unfix 4

fix 5 all npt temp 300 300 $(100.0*dt) iso 1.0 1.0 $(1000.0*dt)
fix 5 all npt temp 300 300 10 iso 1.0 1.0 $(1000.0*dt)
fix 5 all npt temp 300 300 10 iso 1.0 1.0 100

run 300000
Generated 0 of 1 mixed pair_coeff terms from geometric mixing rule
Step          Temp          Press          PotEng        Density         KinEng         TotEng           Lx             Ly             Lz            Xlo            Xhi            Ylo            Yhi            Zlo            Zhi           Volume           Dt            Time           CPU           T/CPU          S/CPU         CPULeft
38905000   5196.9889      910.80064     -10136474       2.5577342      15475.745     -10120999       539.50128      539.50128      539.50128      2230.2494      2769.7506      2230.2494      2769.7506      2230.2494      2769.7506      1.5702813e+08  0.1            7815000        0              0              0              0
Averages over the last 751 of 1501 rows, steps 39055000 to 39205000:
Temp Press PotEng Density KinEng TotEng Lx Ly Lz Xlo Xhi Ylo Yhi Zlo Zhi Volume Dt
304.625 1.15604 -1.02379e+07 2.5433 907.121 -1.02369e+07 540.52 540.52 540.52 2229.74 2770.26 2229.74 2770.26 2229.74 2770.26 1.5792e+08 0.1
Loop time of 62.2063 on 1 procs for 300000 steps with 1000 atoms

# run_style
run_style verlet

# write restart
write_restart ./pgnpmf/900100/equpmf56.res
System init for write_restart ...
Generated 0 of 1 mixed pair_coeff terms from geometric mixing rule
