LAMMPS (23 Jun 2022 - Update 1)
# Read restart
read_restart ./pgnpmf/900100/equpmf9.res
Reading restart file ...
  restart file = 23 Jun 2022, LAMMPS = 23 Jun 2022
  restoring atom style atomic from restart
  orthogonal box = (2066.8767 2066.8767 2066.8767) to (2933.1233 2933.1233 2933.1233)
  restoring pair style table from restart
  1000 atoms
  read_restart CPU = 0.011 seconds

# Settings

pair_style table spline 9941

pair_coeff 1 1 ./pgnpmf/N20.txt DE_GNP 75.6
pair_coeff 2 2 ./pgnpmf/N100.txt DE_GNP 115.92
pair_coeff 1 2 ./pgnpmf/mixed_potential.txt DE_GNP 95.66

#Neigh_list Calc Frequency

neigh_modify delay 0 every 1 check yes

# Saving Frequency (50 frames)

variable ts_save equal 5000

# Dump
#dump_modify 1 first no sort id
#dump 2 all cfg 50000 ./equilibration/trajectory/ovito/dumpgen.tens_*.cfg mass type xs ys zs fx fy fz

# thermo_style
thermo_style custom step temp press pe density ke etotal lx ly lz xlo xhi ylo yhi zlo zhi vol dt time cpu tpcpu spcpu cpuremain

# run info
timestep 0.5
thermo 200

# fix

fix 1 all momentum 1000 linear 1 1 1 angular
variable T equal 300
fix 2 all nvt temp 300 370000 100.0

run 100000
Generated 0 of 1 mixed pair_coeff terms from geometric mixing rule
Unused restart file global fix info:
  fix style: npt, fix ID: 5
  update every 1 steps, delay 0 steps, check yes
Step          Temp          Press          PotEng        Density         KinEng         TotEng           Lx             Ly             Lz            Xlo            Xhi            Ylo            Yhi            Zlo            Zhi           Volume           Dt            Time           CPU           T/CPU          S/CPU         CPULeft
6305000   312.91765      1.6883636     -3689728.1      0.61788593     931.81534     -3688796.3      866.24655      866.24655      866.24655      2066.8767      2933.1233      2066.8767      2933.1233      2066.8767      2933.1233      6.5001676e+08  0.5            3155000        0              0              0              0
Averages over the last 251 of 501 rows, steps 6355000 to 6405000:
Temp Press PotEng Density KinEng TotEng Lx Ly Lz Xlo Xhi Ylo Yhi Zlo Zhi Volume Dt
277102 48.039 -3.57014e+06 0.617886 825163 -2.74498e+06 866.247 866.247 866.247 2066.88 2933.12 2066.88 2933.12 2066.88 2933.12 6.50017e+08 0.5
Loop time of 108.789 on 4 procs for 100000 steps with 1000 atoms

unfix 2

fix 3 all nvt temp 370000 370000 $(100.0*dt) #iso 1.0 1.0 $(1000.0*dt)
fix 3 all nvt temp 370000 370000 50

run 200000
Generated 0 of 1 mixed pair_coeff terms from geometric mixing rule
Step          Temp          Press          PotEng        Density         KinEng         TotEng           Lx             Ly             Lz            Xlo            Xhi            Ylo            Yhi            Zlo            Zhi           Volume           Dt            Time           CPU           T/CPU          S/CPU         CPULeft
6405000   381471.76      51.200704     -3313567.9      0.61788593     1135957.8     -2177610.1      866.24655      866.24655      866.24655      2066.8767      2933.1233      2066.8767      2933.1233      2066.8767      2933.1233      6.5001676e+08  0.5            3205000        0              0              0              0
Averages over the last 501 of 1001 rows, steps 6505000 to 6605000:
Temp Press PotEng Density KinEng TotEng Lx Ly Lz Xlo Xhi Ylo Yhi Zlo Zhi Volume Dt
370159 68.0118 -3.07525e+06 0.617886 1.10227e+06 -1.97298e+06 866.247 866.247 866.247 2066.88 2933.12 2066.88 2933.12 2066.88 2933.12 6.50017e+08 0.5
Loop time of 214.421 on 4 procs for 200000 steps with 1000 atoms

unfix 3

fix 4 all nvt temp 370000 300 100.0

run 100000
Generated 0 of 1 mixed pair_coeff terms from geometric mixing rule
Step          Temp          Press          PotEng        Density         KinEng         TotEng           Lx             Ly             Lz            Xlo            Xhi            Ylo            Yhi            Zlo            Zhi           Volume           Dt            Time           CPU           T/CPU          S/CPU         CPULeft
6605000   353071.67      41.198296     -3038149.3      0.61788593     1051387.1     -1986762.2      866.24655      866.24655      866.24655      2066.8767      2933.1233      2066.8767      2933.1233      2066.8767      2933.1233      6.5001676e+08  0.5            3305000        0              0              0              0
Averages over the last 251 of 501 rows, steps 6655000 to 6705000:
Temp Press PotEng Density KinEng TotEng Lx Ly Lz Xlo Xhi Ylo Yhi Zlo Zhi Volume Dt
93039.5 -43.8092 -3.36268e+06 0.617886 277056 -3.08562e+06 866.247 866.247 866.247 2066.88 2933.12 2066.88 2933.12 2066.88 2933.12 6.50017e+08 0.5
Loop time of 107.585 on 4 procs for 100000 steps with 1000 atoms

unfix 4

fix 5 all npt temp 300 300 $(100.0*dt) iso 1.0 1.0 $(1000.0*dt)
fix 5 all npt temp 300 300 50 iso 1.0 1.0 $(1000.0*dt)
fix 5 all npt temp 300 300 50 iso 1.0 1.0 500

run 300000
Generated 0 of 1 mixed pair_coeff terms from geometric mixing rule
Step          Temp          Press          PotEng        Density         KinEng         TotEng           Lx             Ly             Lz            Xlo            Xhi            Ylo            Yhi            Zlo            Zhi           Volume           Dt            Time           CPU           T/CPU          S/CPU         CPULeft
6705000   1366.8143     -103.98633     -3590235.1      0.61788593     4070.1396     -3586164.9      866.24655      866.24655      866.24655      2066.8767      2933.1233      2066.8767      2933.1233      2066.8767      2933.1233      6.5001676e+08  0.5            3355000        0              0              0              0
Averages over the last 751 of 1501 rows, steps 6855000 to 7005000:
Temp Press PotEng Density KinEng TotEng Lx Ly Lz Xlo Xhi Ylo Yhi Zlo Zhi Volume Dt
317.734 1.00139 -4.24372e+06 0.779172 946.158 -4.24277e+06 801.972 801.972 801.972 2099.01 2900.99 2099.01 2900.99 2099.01 2900.99 5.15962e+08 0.5
Loop time of 429.545 on 4 procs for 300000 steps with 1000 atoms

# run_style
run_style verlet

# write restart
write_restart ./pgnpmf/900100/equpmf10.res
System init for write_restart ...
Generated 0 of 1 mixed pair_coeff terms from geometric mixing rule
