LAMMPS (23 Jun 2022 - Update 1)
# Read restart
read_restart ./pgnpmf/900100/equpmf63.res
Reading restart file ...
  restart file = 23 Jun 2022, LAMMPS = 23 Jun 2022
  restoring atom style atomic from restart
  orthogonal box = (2230.1914 2230.1914 2230.1914) to (2769.8086 2769.8086 2769.8086)
  restoring pair style table from restart
  1000 atoms
  read_restart CPU = 0.006 seconds

# Settings

pair_style table spline 9941

pair_coeff 1 1 ./pgnpmf/N20.txt DE_GNP 75.6
pair_coeff 2 2 ./pgnpmf/N100.txt DE_GNP 115.92
pair_coeff 1 2 ./pgnpmf/mixed_potential.txt DE_GNP 95.66

#Neigh_list Calc Frequency

neigh_modify delay 0 every 1 check yes

# Saving Frequency (50 frames)

variable ts_save equal 5000

# Dump
#dump_modify 1 first no sort id
#dump 2 all cfg 50000 ./equilibration/trajectory/ovito/dumpgen.tens_*.cfg mass type xs ys zs fx fy fz

# thermo_style
thermo_style custom step temp press pe density ke etotal lx ly lz xlo xhi ylo yhi zlo zhi vol dt time cpu tpcpu spcpu cpuremain

# run info
timestep 0.1
thermo 200

# fix

fix 1 all momentum 1000 linear 1 1 1 angular
variable T equal 300
fix 2 all nvt temp 300 370000 100.0

run 100000
Generated 0 of 1 mixed pair_coeff terms from geometric mixing rule
Unused restart file global fix info:
  fix style: npt, fix ID: 5
  update every 1 steps, delay 0 steps, check yes
Step          Temp          Press          PotEng        Density         KinEng         TotEng           Lx             Ly             Lz            Xlo            Xhi            Ylo            Yhi            Zlo            Zhi           Volume           Dt            Time           CPU           T/CPU          S/CPU         CPULeft
44105000   304.12735      0.36617721    -10295329       2.5560858      905.63932     -10294423       539.61724      539.61724      539.61724      2230.1914      2769.8086      2230.1914      2769.8086      2230.1914      2769.8086      1.571294e+08   0.1            8335000        0              0              0              0
Averages over the last 251 of 501 rows, steps 44155000 to 44205000:
Temp Press PotEng Density KinEng TotEng Lx Ly Lz Xlo Xhi Ylo Yhi Zlo Zhi Volume Dt
277511 2020.35 -9.88279e+06 2.55609 826382 -9.0564e+06 539.617 539.617 539.617 2230.19 2769.81 2230.19 2769.81 2230.19 2769.81 1.57129e+08 0.1
Loop time of 18.0752 on 1 procs for 100000 steps with 1000 atoms

unfix 2

fix 3 all nvt temp 370000 370000 $(100.0*dt) #iso 1.0 1.0 $(1000.0*dt)
fix 3 all nvt temp 370000 370000 10

run 200000
Generated 0 of 1 mixed pair_coeff terms from geometric mixing rule
Step          Temp          Press          PotEng        Density         KinEng         TotEng           Lx             Ly             Lz            Xlo            Xhi            Ylo            Yhi            Zlo            Zhi           Volume           Dt            Time           CPU           T/CPU          S/CPU         CPULeft
44205000   357084.81      3054.2278     -9667703.2      2.5560858      1063337.6     -8604365.6      539.61724      539.61724      539.61724      2230.1914      2769.8086      2230.1914      2769.8086      2230.1914      2769.8086      1.571294e+08   0.1            8345000        0              0              0              0
Averages over the last 501 of 1001 rows, steps 44305000 to 44405000:
Temp Press PotEng Density KinEng TotEng Lx Ly Lz Xlo Xhi Ylo Yhi Zlo Zhi Volume Dt
370111 4247.48 -9.39049e+06 2.55609 1.10213e+06 -8.28837e+06 539.617 539.617 539.617 2230.19 2769.81 2230.19 2769.81 2230.19 2769.81 1.57129e+08 0.1
Loop time of 36.5789 on 1 procs for 200000 steps with 1000 atoms

unfix 3

fix 4 all nvt temp 370000 300 100.0

run 100000
Generated 0 of 1 mixed pair_coeff terms from geometric mixing rule
Step          Temp          Press          PotEng        Density         KinEng         TotEng           Lx             Ly             Lz            Xlo            Xhi            Ylo            Yhi            Zlo            Zhi           Volume           Dt            Time           CPU           T/CPU          S/CPU         CPULeft
44405000   359309.45      4255.9239     -9373058.3      2.5560858      1069962.2     -8303096.1      539.61724      539.61724      539.61724      2230.1914      2769.8086      2230.1914      2769.8086      2230.1914      2769.8086      1.571294e+08   0.1            8365000        0              0              0              0
Averages over the last 251 of 501 rows, steps 44455000 to 44505000:
Temp Press PotEng Density KinEng TotEng Lx Ly Lz Xlo Xhi Ylo Yhi Zlo Zhi Volume Dt
96530.3 1684.55 -9.90538e+06 2.55609 287451 -9.61793e+06 539.617 539.617 539.617 2230.19 2769.81 2230.19 2769.81 2230.19 2769.81 1.57129e+08 0.1
Loop time of 17.9561 on 1 procs for 100000 steps with 1000 atoms

unfix 4

fix 5 all npt temp 300 300 $(100.0*dt) iso 1.0 1.0 $(1000.0*dt)
fix 5 all npt temp 300 300 10 iso 1.0 1.0 $(1000.0*dt)
fix 5 all npt temp 300 300 10 iso 1.0 1.0 100

run 300000
Generated 0 of 1 mixed pair_coeff terms from geometric mixing rule
Step          Temp          Press          PotEng        Density         KinEng         TotEng           Lx             Ly             Lz            Xlo            Xhi            Ylo            Yhi            Zlo            Zhi           Volume           Dt            Time           CPU           T/CPU          S/CPU         CPULeft
44505000   5151.0168      680.1954      -10101672       2.5560858      15338.848     -10086333       539.61724      539.61724      539.61724      2230.1914      2769.8086      2230.1914      2769.8086      2230.1914      2769.8086      1.571294e+08   0.1            8375000        0              0              0              0
Averages over the last 751 of 1501 rows, steps 44655000 to 44805000:
Temp Press PotEng Density KinEng TotEng Lx Ly Lz Xlo Xhi Ylo Yhi Zlo Zhi Volume Dt
304.748 0.885533 -1.02105e+07 2.5517 907.488 -1.02096e+07 539.926 539.926 539.926 2230.04 2769.96 2230.04 2769.96 2230.04 2769.96 1.57399e+08 0.1
Loop time of 62.101 on 1 procs for 300000 steps with 1000 atoms

# run_style
run_style verlet

# write restart
write_restart ./pgnpmf/900100/equpmf64.res
System init for write_restart ...
Generated 0 of 1 mixed pair_coeff terms from geometric mixing rule
