LAMMPS (23 Jun 2022 - Update 1)
# Read restart
read_restart ./pgnpmf/900100/equpmf36.res
Reading restart file ...
  restart file = 23 Jun 2022, LAMMPS = 23 Jun 2022
  restoring atom style atomic from restart
  orthogonal box = (2229.5647 2229.5647 2229.5647) to (2770.4353 2770.4353 2770.4353)
  restoring pair style table from restart
  1000 atoms
  read_restart CPU = 0.007 seconds

# Settings

pair_style table spline 9941

pair_coeff 1 1 ./pgnpmf/N20.txt DE_GNP 75.6
pair_coeff 2 2 ./pgnpmf/N100.txt DE_GNP 115.92
pair_coeff 1 2 ./pgnpmf/mixed_potential.txt DE_GNP 95.66

#Neigh_list Calc Frequency

neigh_modify delay 0 every 1 check yes

# Saving Frequency (50 frames)

variable ts_save equal 5000

# Dump
#dump_modify 1 first no sort id
#dump 2 all cfg 50000 ./equilibration/trajectory/ovito/dumpgen.tens_*.cfg mass type xs ys zs fx fy fz

# thermo_style
thermo_style custom step temp press pe density ke etotal lx ly lz xlo xhi ylo yhi zlo zhi vol dt time cpu tpcpu spcpu cpuremain

# run info
timestep 0.1
thermo 200

# fix

fix 1 all momentum 1000 linear 1 1 1 angular
variable T equal 300
fix 2 all nvt temp 300 370000 100.0

run 100000
Generated 0 of 1 mixed pair_coeff terms from geometric mixing rule
Unused restart file global fix info:
  fix style: npt, fix ID: 5
  update every 1 steps, delay 0 steps, check yes
Step          Temp          Press          PotEng        Density         KinEng         TotEng           Lx             Ly             Lz            Xlo            Xhi            Ylo            Yhi            Zlo            Zhi           Volume           Dt            Time           CPU           T/CPU          S/CPU         CPULeft
25205000   303.63493     -8.2745626     -10226523       2.5383579      904.17298     -10225619       540.87055      540.87055      540.87055      2229.5647      2770.4353      2229.5647      2770.4353      2229.5647      2770.4353      1.5822678e+08  0.1            6445000        0              0              0              0
Averages over the last 251 of 501 rows, steps 25255000 to 25305000:
Temp Press PotEng Density KinEng TotEng Lx Ly Lz Xlo Xhi Ylo Yhi Zlo Zhi Volume Dt
277534 2013.36 -9.82121e+06 2.53836 826449 -8.99477e+06 540.871 540.871 540.871 2229.56 2770.44 2229.56 2770.44 2229.56 2770.44 1.58227e+08 0.1
Loop time of 17.8992 on 1 procs for 100000 steps with 1000 atoms

unfix 2

fix 3 all nvt temp 370000 370000 $(100.0*dt) #iso 1.0 1.0 $(1000.0*dt)
fix 3 all nvt temp 370000 370000 10

run 200000
Generated 0 of 1 mixed pair_coeff terms from geometric mixing rule
Step          Temp          Press          PotEng        Density         KinEng         TotEng           Lx             Ly             Lz            Xlo            Xhi            Ylo            Yhi            Zlo            Zhi           Volume           Dt            Time           CPU           T/CPU          S/CPU         CPULeft
25305000   373844.87      3283.3113     -9546311.2      2.5383579      1113246.2     -8433065        540.87055      540.87055      540.87055      2229.5647      2770.4353      2229.5647      2770.4353      2229.5647      2770.4353      1.5822678e+08  0.1            6455000        0              0              0              0
Averages over the last 501 of 1001 rows, steps 25405000 to 25505000:
Temp Press PotEng Density KinEng TotEng Lx Ly Lz Xlo Xhi Ylo Yhi Zlo Zhi Volume Dt
370059 4209.01 -9.38064e+06 2.53836 1.10197e+06 -8.27866e+06 540.871 540.871 540.871 2229.56 2770.44 2229.56 2770.44 2229.56 2770.44 1.58227e+08 0.1
Loop time of 36.23 on 1 procs for 200000 steps with 1000 atoms

unfix 3

fix 4 all nvt temp 370000 300 100.0

run 100000
Generated 0 of 1 mixed pair_coeff terms from geometric mixing rule
Step          Temp          Press          PotEng        Density         KinEng         TotEng           Lx             Ly             Lz            Xlo            Xhi            Ylo            Yhi            Zlo            Zhi           Volume           Dt            Time           CPU           T/CPU          S/CPU         CPULeft
25505000   363482.22      3947.9342     -9416645.6      2.5383579      1082388       -8334257.6      540.87055      540.87055      540.87055      2229.5647      2770.4353      2229.5647      2770.4353      2229.5647      2770.4353      1.5822678e+08  0.1            6475000        0              0              0              0
Averages over the last 251 of 501 rows, steps 25555000 to 25605000:
Temp Press PotEng Density KinEng TotEng Lx Ly Lz Xlo Xhi Ylo Yhi Zlo Zhi Volume Dt
96491.2 1540.09 -9.93346e+06 2.53836 287334 -9.64612e+06 540.871 540.871 540.871 2229.56 2770.44 2229.56 2770.44 2229.56 2770.44 1.58227e+08 0.1
Loop time of 18.0654 on 1 procs for 100000 steps with 1000 atoms

unfix 4

fix 5 all npt temp 300 300 $(100.0*dt) iso 1.0 1.0 $(1000.0*dt)
fix 5 all npt temp 300 300 10 iso 1.0 1.0 $(1000.0*dt)
fix 5 all npt temp 300 300 10 iso 1.0 1.0 100

run 300000
Generated 0 of 1 mixed pair_coeff terms from geometric mixing rule
Step          Temp          Press          PotEng        Density         KinEng         TotEng           Lx             Ly             Lz            Xlo            Xhi            Ylo            Yhi            Zlo            Zhi           Volume           Dt            Time           CPU           T/CPU          S/CPU         CPULeft
25605000   5194.1521      568.26224     -10117860       2.5383579      15467.298     -10102393       540.87055      540.87055      540.87055      2229.5647      2770.4353      2229.5647      2770.4353      2229.5647      2770.4353      1.5822678e+08  0.1            6485000        0              0              0              0
Averages over the last 751 of 1501 rows, steps 25755000 to 25905000:
Temp Press PotEng Density KinEng TotEng Lx Ly Lz Xlo Xhi Ylo Yhi Zlo Zhi Volume Dt
304.887 0.91877 -1.02418e+07 2.5408 907.901 -1.02409e+07 540.697 540.697 540.697 2229.65 2770.35 2229.65 2770.35 2229.65 2770.35 1.58075e+08 0.1
Loop time of 62.5062 on 1 procs for 300000 steps with 1000 atoms

# run_style
run_style verlet

# write restart
write_restart ./pgnpmf/900100/equpmf37.res
System init for write_restart ...
Generated 0 of 1 mixed pair_coeff terms from geometric mixing rule
