LAMMPS (23 Jun 2022 - Update 1)
# Read restart
read_restart ./pgnpmf/900100/equpmf27.res
Reading restart file ...
  restart file = 23 Jun 2022, LAMMPS = 23 Jun 2022
  restoring atom style atomic from restart
  orthogonal box = (2229.9251 2229.9251 2229.9251) to (2770.0749 2770.0749 2770.0749)
  restoring pair style table from restart
  1000 atoms
  read_restart CPU = 0.007 seconds

# Settings

pair_style table spline 9941

pair_coeff 1 1 ./pgnpmf/N20.txt DE_GNP 75.6
pair_coeff 2 2 ./pgnpmf/N100.txt DE_GNP 115.92
pair_coeff 1 2 ./pgnpmf/mixed_potential.txt DE_GNP 95.66

#Neigh_list Calc Frequency

neigh_modify delay 0 every 1 check yes

# Saving Frequency (50 frames)

variable ts_save equal 5000

# Dump
#dump_modify 1 first no sort id
#dump 2 all cfg 50000 ./equilibration/trajectory/ovito/dumpgen.tens_*.cfg mass type xs ys zs fx fy fz

# thermo_style
thermo_style custom step temp press pe density ke etotal lx ly lz xlo xhi ylo yhi zlo zhi vol dt time cpu tpcpu spcpu cpuremain

# run info
timestep 0.1
thermo 200

# fix

fix 1 all momentum 1000 linear 1 1 1 angular
variable T equal 300
fix 2 all nvt temp 300 370000 100.0

run 100000
Generated 0 of 1 mixed pair_coeff terms from geometric mixing rule
Unused restart file global fix info:
  fix style: npt, fix ID: 5
  update every 1 steps, delay 0 steps, check yes
Step          Temp          Press          PotEng        Density         KinEng         TotEng           Lx             Ly             Lz            Xlo            Xhi            Ylo            Yhi            Zlo            Zhi           Volume           Dt            Time           CPU           T/CPU          S/CPU         CPULeft
18905000   303.73055      4.1357496     -10300344       2.5485331      904.45771     -10299440       540.14977      540.14977      540.14977      2229.9251      2770.0749      2229.9251      2770.0749      2229.9251      2770.0749      1.5759506e+08  0.1            5815000        0              0              0              0
Averages over the last 251 of 501 rows, steps 18955000 to 19005000:
Temp Press PotEng Density KinEng TotEng Lx Ly Lz Xlo Xhi Ylo Yhi Zlo Zhi Volume Dt
277524 2035.28 -9.90251e+06 2.54853 826420 -9.07609e+06 540.15 540.15 540.15 2229.93 2770.07 2229.93 2770.07 2229.93 2770.07 1.57595e+08 0.1
Loop time of 17.06 on 1 procs for 100000 steps with 1000 atoms

unfix 2

fix 3 all nvt temp 370000 370000 $(100.0*dt) #iso 1.0 1.0 $(1000.0*dt)
fix 3 all nvt temp 370000 370000 10

run 200000
Generated 0 of 1 mixed pair_coeff terms from geometric mixing rule
Step          Temp          Press          PotEng        Density         KinEng         TotEng           Lx             Ly             Lz            Xlo            Xhi            Ylo            Yhi            Zlo            Zhi           Volume           Dt            Time           CPU           T/CPU          S/CPU         CPULeft
19005000   372712.79      3184.0469     -9712146        2.5485331      1109875       -8602270.9      540.14977      540.14977      540.14977      2229.9251      2770.0749      2229.9251      2770.0749      2229.9251      2770.0749      1.5759506e+08  0.1            5825000        0              0              0              0
Averages over the last 501 of 1001 rows, steps 19105000 to 19205000:
Temp Press PotEng Density KinEng TotEng Lx Ly Lz Xlo Xhi Ylo Yhi Zlo Zhi Volume Dt
369922 4203.58 -9.44207e+06 2.54853 1.10156e+06 -8.3405e+06 540.15 540.15 540.15 2229.93 2770.07 2229.93 2770.07 2229.93 2770.07 1.57595e+08 0.1
Loop time of 34.6149 on 1 procs for 200000 steps with 1000 atoms

unfix 3

fix 4 all nvt temp 370000 300 100.0

run 100000
Generated 0 of 1 mixed pair_coeff terms from geometric mixing rule
Step          Temp          Press          PotEng        Density         KinEng         TotEng           Lx             Ly             Lz            Xlo            Xhi            Ylo            Yhi            Zlo            Zhi           Volume           Dt            Time           CPU           T/CPU          S/CPU         CPULeft
19205000   370994.81      4197.5387     -9415977.2      2.5485331      1104759.2     -8311218.1      540.14977      540.14977      540.14977      2229.9251      2770.0749      2229.9251      2770.0749      2229.9251      2770.0749      1.5759506e+08  0.1            5845000        0              0              0              0
Averages over the last 251 of 501 rows, steps 19255000 to 19305000:
Temp Press PotEng Density KinEng TotEng Lx Ly Lz Xlo Xhi Ylo Yhi Zlo Zhi Volume Dt
96361.2 1614.58 -9.96653e+06 2.54853 286947 -9.67959e+06 540.15 540.15 540.15 2229.93 2770.07 2229.93 2770.07 2229.93 2770.07 1.57595e+08 0.1
Loop time of 17.1533 on 1 procs for 100000 steps with 1000 atoms

unfix 4

fix 5 all npt temp 300 300 $(100.0*dt) iso 1.0 1.0 $(1000.0*dt)
fix 5 all npt temp 300 300 10 iso 1.0 1.0 $(1000.0*dt)
fix 5 all npt temp 300 300 10 iso 1.0 1.0 100

run 300000
Generated 0 of 1 mixed pair_coeff terms from geometric mixing rule
Step          Temp          Press          PotEng        Density         KinEng         TotEng           Lx             Ly             Lz            Xlo            Xhi            Ylo            Yhi            Zlo            Zhi           Volume           Dt            Time           CPU           T/CPU          S/CPU         CPULeft
19305000   5206.9008      694.62099     -10144667       2.5485331      15505.261     -10129161       540.14977      540.14977      540.14977      2229.9251      2770.0749      2229.9251      2770.0749      2229.9251      2770.0749      1.5759506e+08  0.1            5855000        0              0              0              0
Averages over the last 751 of 1501 rows, steps 19455000 to 19605000:
Temp Press PotEng Density KinEng TotEng Lx Ly Lz Xlo Xhi Ylo Yhi Zlo Zhi Volume Dt
304.611 0.993098 -1.02496e+07 2.54415 907.08 -1.02487e+07 540.46 540.46 540.46 2229.77 2770.23 2229.77 2770.23 2229.77 2770.23 1.57866e+08 0.1
Loop time of 59.6164 on 1 procs for 300000 steps with 1000 atoms

# run_style
run_style verlet

# write restart
write_restart ./pgnpmf/900100/equpmf28.res
System init for write_restart ...
Generated 0 of 1 mixed pair_coeff terms from geometric mixing rule
