LAMMPS (23 Jun 2022 - Update 1)
# Read restart
read_restart ./pgnpmf/900100/equpmf48.res
Reading restart file ...
  restart file = 23 Jun 2022, LAMMPS = 23 Jun 2022
  restoring atom style atomic from restart
  orthogonal box = (2229.8071 2229.8071 2229.8071) to (2770.1929 2770.1929 2770.1929)
  restoring pair style table from restart
  1000 atoms
  read_restart CPU = 0.004 seconds

# Settings

pair_style table spline 9941

pair_coeff 1 1 ./pgnpmf/N20.txt DE_GNP 75.6
pair_coeff 2 2 ./pgnpmf/N100.txt DE_GNP 115.92
pair_coeff 1 2 ./pgnpmf/mixed_potential.txt DE_GNP 95.66

#Neigh_list Calc Frequency

neigh_modify delay 0 every 1 check yes

# Saving Frequency (50 frames)

variable ts_save equal 5000

# Dump
#dump_modify 1 first no sort id
#dump 2 all cfg 50000 ./equilibration/trajectory/ovito/dumpgen.tens_*.cfg mass type xs ys zs fx fy fz

# thermo_style
thermo_style custom step temp press pe density ke etotal lx ly lz xlo xhi ylo yhi zlo zhi vol dt time cpu tpcpu spcpu cpuremain

# run info
timestep 0.1
thermo 200

# fix

fix 1 all momentum 1000 linear 1 1 1 angular
variable T equal 300
fix 2 all nvt temp 300 370000 100.0

run 100000
Generated 0 of 1 mixed pair_coeff terms from geometric mixing rule
Unused restart file global fix info:
  fix style: npt, fix ID: 5
  update every 1 steps, delay 0 steps, check yes
Step          Temp          Press          PotEng        Density         KinEng         TotEng           Lx             Ly             Lz            Xlo            Xhi            Ylo            Yhi            Zlo            Zhi           Volume           Dt            Time           CPU           T/CPU          S/CPU         CPULeft
33605000   303.88996     -0.86809895    -10169119       2.5451963      904.9324      -10168214       540.38572      540.38572      540.38572      2229.8071      2770.1929      2229.8071      2770.1929      2229.8071      2770.1929      1.5780167e+08  0.1            7285000        0              0              0              0
Averages over the last 251 of 501 rows, steps 33655000 to 33705000:
Temp Press PotEng Density KinEng TotEng Lx Ly Lz Xlo Xhi Ylo Yhi Zlo Zhi Volume Dt
277880 2087.73 -9.78979e+06 2.5452 827479 -8.96231e+06 540.386 540.386 540.386 2229.81 2770.19 2229.81 2770.19 2229.81 2770.19 1.57802e+08 0.1
Loop time of 17.5719 on 1 procs for 100000 steps with 1000 atoms

unfix 2

fix 3 all nvt temp 370000 370000 $(100.0*dt) #iso 1.0 1.0 $(1000.0*dt)
fix 3 all nvt temp 370000 370000 10

run 200000
Generated 0 of 1 mixed pair_coeff terms from geometric mixing rule
Step          Temp          Press          PotEng        Density         KinEng         TotEng           Lx             Ly             Lz            Xlo            Xhi            Ylo            Yhi            Zlo            Zhi           Volume           Dt            Time           CPU           T/CPU          S/CPU         CPULeft
33705000   372821.84      3316.9954     -9575870.8      2.5451963      1110199.8     -8465671        540.38572      540.38572      540.38572      2229.8071      2770.1929      2229.8071      2770.1929      2229.8071      2770.1929      1.5780167e+08  0.1            7295000        0              0              0              0
Averages over the last 501 of 1001 rows, steps 33805000 to 33905000:
Temp Press PotEng Density KinEng TotEng Lx Ly Lz Xlo Xhi Ylo Yhi Zlo Zhi Volume Dt
370044 4066.75 -9.36561e+06 2.5452 1.10193e+06 -8.26368e+06 540.386 540.386 540.386 2229.81 2770.19 2229.81 2770.19 2229.81 2770.19 1.57802e+08 0.1
Loop time of 36.1019 on 1 procs for 200000 steps with 1000 atoms

unfix 3

fix 4 all nvt temp 370000 300 100.0

run 100000
Generated 0 of 1 mixed pair_coeff terms from geometric mixing rule
Step          Temp          Press          PotEng        Density         KinEng         TotEng           Lx             Ly             Lz            Xlo            Xhi            Ylo            Yhi            Zlo            Zhi           Volume           Dt            Time           CPU           T/CPU          S/CPU         CPULeft
33905000   375951.38      4111.0764     -9351462.9      2.5451963      1119519       -8231943.9      540.38572      540.38572      540.38572      2229.8071      2770.1929      2229.8071      2770.1929      2229.8071      2770.1929      1.5780167e+08  0.1            7315000        0              0              0              0
Averages over the last 251 of 501 rows, steps 33955000 to 34005000:
Temp Press PotEng Density KinEng TotEng Lx Ly Lz Xlo Xhi Ylo Yhi Zlo Zhi Volume Dt
96535.4 1588.94 -9.84222e+06 2.5452 287466 -9.55476e+06 540.386 540.386 540.386 2229.81 2770.19 2229.81 2770.19 2229.81 2770.19 1.57802e+08 0.1
Loop time of 17.9197 on 1 procs for 100000 steps with 1000 atoms

unfix 4

fix 5 all npt temp 300 300 $(100.0*dt) iso 1.0 1.0 $(1000.0*dt)
fix 5 all npt temp 300 300 10 iso 1.0 1.0 $(1000.0*dt)
fix 5 all npt temp 300 300 10 iso 1.0 1.0 100

run 300000
Generated 0 of 1 mixed pair_coeff terms from geometric mixing rule
Step          Temp          Press          PotEng        Density         KinEng         TotEng           Lx             Ly             Lz            Xlo            Xhi            Ylo            Yhi            Zlo            Zhi           Volume           Dt            Time           CPU           T/CPU          S/CPU         CPULeft
34005000   5226.837       627.60858     -10006410       2.5451963      15564.628     -9990845.8      540.38572      540.38572      540.38572      2229.8071      2770.1929      2229.8071      2770.1929      2229.8071      2770.1929      1.5780167e+08  0.1            7325000        0              0              0              0
Averages over the last 751 of 1501 rows, steps 34155000 to 34305000:
Temp Press PotEng Density KinEng TotEng Lx Ly Lz Xlo Xhi Ylo Yhi Zlo Zhi Volume Dt
304.823 0.607504 -1.01402e+07 2.54424 907.711 -1.01393e+07 540.453 540.453 540.453 2229.77 2770.23 2229.77 2770.23 2229.77 2770.23 1.57861e+08 0.1
Loop time of 61.8754 on 1 procs for 300000 steps with 1000 atoms

# run_style
run_style verlet

# write restart
write_restart ./pgnpmf/900100/equpmf49.res
System init for write_restart ...
Generated 0 of 1 mixed pair_coeff terms from geometric mixing rule
