LAMMPS (23 Jun 2022 - Update 1)
# Read restart
read_restart ./pgnpmf/900100/equpmf49.res
Reading restart file ...
  restart file = 23 Jun 2022, LAMMPS = 23 Jun 2022
  restoring atom style atomic from restart
  orthogonal box = (2229.9525 2229.9525 2229.9525) to (2770.0475 2770.0475 2770.0475)
  restoring pair style table from restart
  1000 atoms
  read_restart CPU = 0.007 seconds

# Settings

pair_style table spline 9941

pair_coeff 1 1 ./pgnpmf/N20.txt DE_GNP 75.6
pair_coeff 2 2 ./pgnpmf/N100.txt DE_GNP 115.92
pair_coeff 1 2 ./pgnpmf/mixed_potential.txt DE_GNP 95.66

#Neigh_list Calc Frequency

neigh_modify delay 0 every 1 check yes

# Saving Frequency (50 frames)

variable ts_save equal 5000

# Dump
#dump_modify 1 first no sort id
#dump 2 all cfg 50000 ./equilibration/trajectory/ovito/dumpgen.tens_*.cfg mass type xs ys zs fx fy fz

# thermo_style
thermo_style custom step temp press pe density ke etotal lx ly lz xlo xhi ylo yhi zlo zhi vol dt time cpu tpcpu spcpu cpuremain

# run info
timestep 0.1
thermo 200

# fix

fix 1 all momentum 1000 linear 1 1 1 angular
variable T equal 300
fix 2 all nvt temp 300 370000 100.0

run 100000
Generated 0 of 1 mixed pair_coeff terms from geometric mixing rule
Unused restart file global fix info:
  fix style: npt, fix ID: 5
  update every 1 steps, delay 0 steps, check yes
Step          Temp          Press          PotEng        Density         KinEng         TotEng           Lx             Ly             Lz            Xlo            Xhi            Ylo            Yhi            Zlo            Zhi           Volume           Dt            Time           CPU           T/CPU          S/CPU         CPULeft
34305000   303.91238      1.0947335     -10178863       2.5493073      904.99916     -10177958       540.09508      540.09508      540.09508      2229.9525      2770.0475      2229.9525      2770.0475      2229.9525      2770.0475      1.5754719e+08  0.1            7355000        0              0              0              0
Averages over the last 251 of 501 rows, steps 34355000 to 34405000:
Temp Press PotEng Density KinEng TotEng Lx Ly Lz Xlo Xhi Ylo Yhi Zlo Zhi Volume Dt
277323 2088.11 -9.8003e+06 2.54931 825820 -8.97448e+06 540.095 540.095 540.095 2229.95 2770.05 2229.95 2770.05 2229.95 2770.05 1.57547e+08 0.1
Loop time of 17.6496 on 1 procs for 100000 steps with 1000 atoms

unfix 2

fix 3 all nvt temp 370000 370000 $(100.0*dt) #iso 1.0 1.0 $(1000.0*dt)
fix 3 all nvt temp 370000 370000 10

run 200000
Generated 0 of 1 mixed pair_coeff terms from geometric mixing rule
Step          Temp          Press          PotEng        Density         KinEng         TotEng           Lx             Ly             Lz            Xlo            Xhi            Ylo            Yhi            Zlo            Zhi           Volume           Dt            Time           CPU           T/CPU          S/CPU         CPULeft
34405000   368121.17      3533.6013     -9500594.3      2.5493073      1096202       -8404392.4      540.09508      540.09508      540.09508      2229.9525      2770.0475      2229.9525      2770.0475      2229.9525      2770.0475      1.5754719e+08  0.1            7365000        0              0              0              0
Averages over the last 501 of 1001 rows, steps 34505000 to 34605000:
Temp Press PotEng Density KinEng TotEng Lx Ly Lz Xlo Xhi Ylo Yhi Zlo Zhi Volume Dt
369973 4120.08 -9.40559e+06 2.54931 1.10172e+06 -8.30388e+06 540.095 540.095 540.095 2229.95 2770.05 2229.95 2770.05 2229.95 2770.05 1.57547e+08 0.1
Loop time of 36.0539 on 1 procs for 200000 steps with 1000 atoms

unfix 3

fix 4 all nvt temp 370000 300 100.0

run 100000
Generated 0 of 1 mixed pair_coeff terms from geometric mixing rule
Step          Temp          Press          PotEng        Density         KinEng         TotEng           Lx             Ly             Lz            Xlo            Xhi            Ylo            Yhi            Zlo            Zhi           Volume           Dt            Time           CPU           T/CPU          S/CPU         CPULeft
34605000   362512.54      4124.7067     -9356415.2      2.5493073      1079500.4     -8276914.7      540.09508      540.09508      540.09508      2229.9525      2770.0475      2229.9525      2770.0475      2229.9525      2770.0475      1.5754719e+08  0.1            7385000        0              0              0              0
Averages over the last 251 of 501 rows, steps 34655000 to 34705000:
Temp Press PotEng Density KinEng TotEng Lx Ly Lz Xlo Xhi Ylo Yhi Zlo Zhi Volume Dt
96640.7 1414.03 -9.9286e+06 2.54931 287780 -9.64082e+06 540.095 540.095 540.095 2229.95 2770.05 2229.95 2770.05 2229.95 2770.05 1.57547e+08 0.1
Loop time of 17.9666 on 1 procs for 100000 steps with 1000 atoms

unfix 4

fix 5 all npt temp 300 300 $(100.0*dt) iso 1.0 1.0 $(1000.0*dt)
fix 5 all npt temp 300 300 10 iso 1.0 1.0 $(1000.0*dt)
fix 5 all npt temp 300 300 10 iso 1.0 1.0 100

run 300000
Generated 0 of 1 mixed pair_coeff terms from geometric mixing rule
Step          Temp          Press          PotEng        Density         KinEng         TotEng           Lx             Ly             Lz            Xlo            Xhi            Ylo            Yhi            Zlo            Zhi           Volume           Dt            Time           CPU           T/CPU          S/CPU         CPULeft
34705000   5152.9186      385.50982     -10126618       2.5493073      15344.512     -10111273       540.09508      540.09508      540.09508      2229.9525      2770.0475      2229.9525      2770.0475      2229.9525      2770.0475      1.5754719e+08  0.1            7395000        0              0              0              0
Averages over the last 751 of 1501 rows, steps 34855000 to 35005000:
Temp Press PotEng Density KinEng TotEng Lx Ly Lz Xlo Xhi Ylo Yhi Zlo Zhi Volume Dt
304.486 1.29521 -1.02569e+07 2.5596 906.708 -1.0256e+07 539.37 539.37 539.37 2230.31 2769.69 2230.31 2769.69 2230.31 2769.69 1.56914e+08 0.1
Loop time of 61.8887 on 1 procs for 300000 steps with 1000 atoms

# run_style
run_style verlet

# write restart
write_restart ./pgnpmf/900100/equpmf50.res
System init for write_restart ...
Generated 0 of 1 mixed pair_coeff terms from geometric mixing rule
