LAMMPS (23 Jun 2022 - Update 1)
# Read restart
read_restart ./pgnpmf/64/equpmf62.res
Reading restart file ...
  restart file = 23 Jun 2022, LAMMPS = 23 Jun 2022
  restoring atom style atomic from restart
  orthogonal box = (1683.2553 1683.2553 1683.2553) to (2316.7447 2316.7447 2316.7447)
  restoring pair style table from restart
  1000 atoms
  read_restart CPU = 0.004 seconds

# Settings

pair_style table spline 9941

pair_coeff 1 1 ./pgnpmf/N20.txt DE_GNP 75.6
pair_coeff 2 2 ./pgnpmf/N100.txt DE_GNP 115.92
pair_coeff 1 2 ./pgnpmf/mixed_potential.txt DE_GNP 95.66

#Neigh_list Calc Frequency

neigh_modify delay 0 every 1 check yes

# Saving Frequency (50 frames)

variable ts_save equal 5000

variable nts equal 5000/0.25
variable medium equal 20000*3
variable long equal 20000*5

# Dump
#dump_modify 1 first no sort id
dump 2 all cfg 50000 ./pgnpmf/64/equilibration/trajectory/dumpequ.tens_*.cfg mass type xs ys zs fx fy fz
dump_modify 2 element N20 N100

# thermo_style
thermo_style custom step temp press pe density ke etotal lx ly lz xlo xhi ylo yhi zlo zhi vol dt time cpu tpcpu spcpu cpuremain

# run info
timestep 0.25
thermo 5000

# fix

fix 1 all momentum 1000 linear 1 1 1 angular
variable T equal 300
fix 2 all nvt temp 300 370000 100.0

run 20000
Generated 0 of 1 mixed pair_coeff terms from geometric mixing rule
Unused restart file global fix info:
  fix style: npt, fix ID: 5
  update every 1 steps, delay 0 steps, check yes
Step          Temp          Press          PotEng        Density         KinEng         TotEng           Lx             Ly             Lz            Xlo            Xhi            Ylo            Yhi            Zlo            Zhi           Volume           Dt            Time           CPU           T/CPU          S/CPU         CPULeft
12460000   328.8037       4.6148388     -26532005       1.9721443      979.12129     -26531026       633.48941      633.48941      633.48941      1683.2553      2316.7447      1683.2553      2316.7447      1683.2553      2316.7447      2.542249e+08   0.25           3160000        0              0              0              0
Loop time of 1.54978 on 4 procs for 20000 steps with 1000 atoms

unfix 2

fix 3 all nvt temp 370000 370000 $(100.0*dt) #iso 1.0 1.0 $(1000.0*dt)
fix 3 all nvt temp 370000 370000 25

run 100000
Generated 0 of 1 mixed pair_coeff terms from geometric mixing rule
Step          Temp          Press          PotEng        Density         KinEng         TotEng           Lx             Ly             Lz            Xlo            Xhi            Ylo            Yhi            Zlo            Zhi           Volume           Dt            Time           CPU           T/CPU          S/CPU         CPULeft
12480000   371444.19      915.32237     -26165701       1.9721443      1106097.4     -25059603       633.48941      633.48941      633.48941      1683.2553      2316.7447      1683.2553      2316.7447      1683.2553      2316.7447      2.542249e+08   0.25           3165000        0              0              0              0
Averages over the last 11 of 21 rows, steps 12530000 to 12580000:
Temp Press PotEng Density KinEng TotEng Lx Ly Lz Xlo Xhi Ylo Yhi Zlo Zhi Volume Dt
373376 2051.62 -2.58453e+07 1.97214 1.11185e+06 -2.47335e+07 633.489 633.489 633.489 1683.26 2316.74 1683.26 2316.74 1683.26 2316.74 2.54225e+08 0.25
Loop time of 7.8314 on 4 procs for 100000 steps with 1000 atoms

unfix 3

fix 4 all nvt temp 370000 300 100.0

run 20000
Generated 0 of 1 mixed pair_coeff terms from geometric mixing rule
Step          Temp          Press          PotEng        Density         KinEng         TotEng           Lx             Ly             Lz            Xlo            Xhi            Ylo            Yhi            Zlo            Zhi           Volume           Dt            Time           CPU           T/CPU          S/CPU         CPULeft
12580000   367221.25      1980.5092     -25909168       1.9721443      1093522.2     -24815646       633.48941      633.48941      633.48941      1683.2553      2316.7447      1683.2553      2316.7447      1683.2553      2316.7447      2.542249e+08   0.25           3190000        0              0              0              0
Loop time of 1.55268 on 4 procs for 20000 steps with 1000 atoms

unfix 4

fix 5 all npt temp 300 300 $(100.0*dt) iso 1.0 1.0 $(1000.0*dt)
fix 5 all npt temp 300 300 25 iso 1.0 1.0 $(1000.0*dt)
fix 5 all npt temp 300 300 25 iso 1.0 1.0 250

run 60000
Generated 0 of 1 mixed pair_coeff terms from geometric mixing rule
Step          Temp          Press          PotEng        Density         KinEng         TotEng           Lx             Ly             Lz            Xlo            Xhi            Ylo            Yhi            Zlo            Zhi           Volume           Dt            Time           CPU           T/CPU          S/CPU         CPULeft
12600000   9688.8951      471.902       -26363879       1.9721443      28851.875     -26335028       633.48941      633.48941      633.48941      1683.2553      2316.7447      1683.2553      2316.7447      1683.2553      2316.7447      2.542249e+08   0.25           3195000        0              0              0              0
Averages over the last 7 of 13 rows, steps 12630000 to 12660000:
Temp Press PotEng Density KinEng TotEng Lx Ly Lz Xlo Xhi Ylo Yhi Zlo Zhi Volume Dt
331.227 0.516465 -2.6471e+07 1.96995 986.337 -2.647e+07 633.725 633.725 633.725 1683.14 2316.86 1683.14 2316.86 1683.14 2316.86 2.54508e+08 0.25
Loop time of 5.40877 on 4 procs for 60000 steps with 1000 atoms

# run_style
run_style verlet

# write restart
write_restart ./pgnpmf/64/equpmf63.res
System init for write_restart ...
Generated 0 of 1 mixed pair_coeff terms from geometric mixing rule
