LAMMPS (23 Jun 2022 - Update 1)
# Read restart
read_restart ./pgnpmf/64/equpmf15.res
Reading restart file ...
  restart file = 23 Jun 2022, LAMMPS = 23 Jun 2022
  restoring atom style atomic from restart
  orthogonal box = (1385.6616 1385.6616 1385.6616) to (2614.3384 2614.3384 2614.3384)
  restoring pair style table from restart
  1000 atoms
  read_restart CPU = 0.004 seconds

# Settings

pair_style table spline 9941

pair_coeff 1 1 ./pgnpmf/N20.txt DE_GNP 75.6
pair_coeff 2 2 ./pgnpmf/N100.txt DE_GNP 115.92
pair_coeff 1 2 ./pgnpmf/mixed_potential.txt DE_GNP 95.66

#Neigh_list Calc Frequency

neigh_modify delay 0 every 1 check yes

# Saving Frequency (50 frames)

variable ts_save equal 5000

variable nts equal 5000/0.25
variable medium equal 20000*3
variable long equal 20000*5

# Dump
#dump_modify 1 first no sort id
dump 2 all cfg 50000 ./pgnpmf/64/equilibration/trajectory/dumpequ.tens_*.cfg mass type xs ys zs fx fy fz
dump_modify 2 element N20 N100

# thermo_style
thermo_style custom step temp press pe density ke etotal lx ly lz xlo xhi ylo yhi zlo zhi vol dt time cpu tpcpu spcpu cpuremain

# run info
timestep 0.25
thermo 5000

# fix

fix 1 all momentum 1000 linear 1 1 1 angular
variable T equal 300
fix 2 all nvt temp 300 370000 100.0

run 20000
Generated 0 of 1 mixed pair_coeff terms from geometric mixing rule
Unused restart file global fix info:
  fix style: npt, fix ID: 5
  update every 1 steps, delay 0 steps, check yes
Step          Temp          Press          PotEng        Density         KinEng         TotEng           Lx             Ly             Lz            Xlo            Xhi            Ylo            Yhi            Zlo            Zhi           Volume           Dt            Time           CPU           T/CPU          S/CPU         CPULeft
3060000   330.92641      0.79928235    -4854581.4      0.27029862     985.44235     -4853596        1228.6768      1228.6768      1228.6768      1385.6616      2614.3384      1385.6616      2614.3384      1385.6616      2614.3384      1.8548677e+09  0.25           810000         0              0              0              0
Loop time of 0.707789 on 4 procs for 20000 steps with 1000 atoms

unfix 2

fix 3 all nvt temp 370000 370000 $(100.0*dt) #iso 1.0 1.0 $(1000.0*dt)
fix 3 all nvt temp 370000 370000 25

run 100000
Generated 0 of 1 mixed pair_coeff terms from geometric mixing rule
Step          Temp          Press          PotEng        Density         KinEng         TotEng           Lx             Ly             Lz            Xlo            Xhi            Ylo            Yhi            Zlo            Zhi           Volume           Dt            Time           CPU           T/CPU          S/CPU         CPULeft
3080000   371614.25      54.317688     -4866476.9      0.27029862     1106603.8     -3759873.1      1228.6768      1228.6768      1228.6768      1385.6616      2614.3384      1385.6616      2614.3384      1385.6616      2614.3384      1.8548677e+09  0.25           815000         0              0              0              0
Averages over the last 11 of 21 rows, steps 3130000 to 3180000:
Temp Press PotEng Density KinEng TotEng Lx Ly Lz Xlo Xhi Ylo Yhi Zlo Zhi Volume Dt
371211 27.6079 -4.96266e+06 0.270299 1.1054e+06 -3.85726e+06 1228.68 1228.68 1228.68 1385.66 2614.34 1385.66 2614.34 1385.66 2614.34 1.85487e+09 0.25
Loop time of 3.56979 on 4 procs for 100000 steps with 1000 atoms

unfix 3

fix 4 all nvt temp 370000 300 100.0

run 20000
Generated 0 of 1 mixed pair_coeff terms from geometric mixing rule
Step          Temp          Press          PotEng        Density         KinEng         TotEng           Lx             Ly             Lz            Xlo            Xhi            Ylo            Yhi            Zlo            Zhi           Volume           Dt            Time           CPU           T/CPU          S/CPU         CPULeft
3180000   369452.02      17.076413     -4948945        0.27029862     1100165       -3848780        1228.6768      1228.6768      1228.6768      1385.6616      2614.3384      1385.6616      2614.3384      1385.6616      2614.3384      1.8548677e+09  0.25           840000         0              0              0              0
Loop time of 0.711241 on 4 procs for 20000 steps with 1000 atoms

unfix 4

fix 5 all npt temp 300 300 $(100.0*dt) iso 1.0 1.0 $(1000.0*dt)
fix 5 all npt temp 300 300 25 iso 1.0 1.0 $(1000.0*dt)
fix 5 all npt temp 300 300 25 iso 1.0 1.0 250

run 60000
Generated 0 of 1 mixed pair_coeff terms from geometric mixing rule
Step          Temp          Press          PotEng        Density         KinEng         TotEng           Lx             Ly             Lz            Xlo            Xhi            Ylo            Yhi            Zlo            Zhi           Volume           Dt            Time           CPU           T/CPU          S/CPU         CPULeft
3200000   8240.9198     -32.342585     -4943354.5      0.27029862     24540.052     -4918814.4      1228.6768      1228.6768      1228.6768      1385.6616      2614.3384      1385.6616      2614.3384      1385.6616      2614.3384      1.8548677e+09  0.25           845000         0              0              0              0
Averages over the last 7 of 13 rows, steps 3230000 to 3260000:
Temp Press PotEng Density KinEng TotEng Lx Ly Lz Xlo Xhi Ylo Yhi Zlo Zhi Volume Dt
329.192 0.975751 -5.34072e+06 0.29552 980.277 -5.33974e+06 1192.7 1192.7 1192.7 1403.65 2596.35 1403.65 2596.35 1403.65 2596.35 1.6967e+09 0.25
Loop time of 2.95607 on 4 procs for 60000 steps with 1000 atoms

# run_style
run_style verlet

# write restart
write_restart ./pgnpmf/64/equpmf16.res
System init for write_restart ...
Generated 0 of 1 mixed pair_coeff terms from geometric mixing rule
