LAMMPS (23 Jun 2022 - Update 1)
# Read restart
read_restart ./pgnpmf/64/genpmf.res
Reading restart file ...
  restart file = 23 Jun 2022, LAMMPS = 23 Jun 2022
  restoring atom style atomic from restart
  orthogonal box = (-100 -100 -100) to (4100 4100 4100)
  restoring pair style table from restart
  1000 atoms
  read_restart CPU = 0.004 seconds

# Settings

pair_style table spline 9941

pair_coeff 1 1 ./pgnpmf/N20.txt DE_GNP 75.6
pair_coeff 2 2 ./pgnpmf/N100.txt DE_GNP 115.92
pair_coeff 1 2 ./pgnpmf/mixed_potential.txt DE_GNP 95.66

#Neigh_list Calc Frequency

neigh_modify delay 0 every 1 check yes

# Saving Frequency (50 frames)

variable ts_save equal 5000

variable nts equal 5000/0.25
variable medium equal 20000*3
variable long equal 20000*5

# Dump
#dump_modify 1 first no sort id
dump 2 all cfg 50000 ./pgnpmf/64/equilibration/trajectory/dumpequ.tens_*.cfg mass type xs ys zs fx fy fz
dump_modify 2 element N20 N100

# thermo_style
thermo_style custom step temp press pe density ke etotal lx ly lz xlo xhi ylo yhi zlo zhi vol dt time cpu tpcpu spcpu cpuremain

# run info
timestep 0.25
thermo 5000

# fix

fix 1 all momentum 1000 linear 1 1 1 angular
variable T equal 300
fix 2 all nvt temp 300 370000 100.0

run 20000
Generated 0 of 1 mixed pair_coeff terms from geometric mixing rule
Unused restart file global fix info:
  fix style: nvt, fix ID: 5
  update every 1 steps, delay 0 steps, check yes
Step          Temp          Press          PotEng        Density         KinEng         TotEng           Lx             Ly             Lz            Xlo            Xhi            Ylo            Yhi            Zlo            Zhi           Volume           Dt            Time           CPU           T/CPU          S/CPU         CPULeft
60000   70320.742      0.045525657   -356590.03      0.0067671982   209403.16     -147186.87      4200           4200           4200          -100            4100          -100            4100          -100            4100           7.4088e+10     0.25           60000          0              0              0              0
Loop time of 0.377271 on 4 procs for 20000 steps with 1000 atoms

unfix 2

fix 3 all nvt temp 370000 370000 $(100.0*dt) #iso 1.0 1.0 $(1000.0*dt)
fix 3 all nvt temp 370000 370000 25

run 100000
Generated 0 of 1 mixed pair_coeff terms from geometric mixing rule
Step          Temp          Press          PotEng        Density         KinEng         TotEng           Lx             Ly             Lz            Xlo            Xhi            Ylo            Yhi            Zlo            Zhi           Volume           Dt            Time           CPU           T/CPU          S/CPU         CPULeft
80000   395131.83      0.81176622    -382756.6       0.0067671982   1176635.1      793878.51      4200           4200           4200          -100            4100          -100            4100          -100            4100           7.4088e+10     0.25           65000          0              0              0              0
Averages over the last 11 of 21 rows, steps 130000 to 180000:
Temp Press PotEng Density KinEng TotEng Lx Ly Lz Xlo Xhi Ylo Yhi Zlo Zhi Volume Dt
368104 0.651227 -429084 0.0067672 1.09615e+06 667067 4200 4200 4200 -100 4100 -100 4100 -100 4100 7.4088e+10 0.25
Loop time of 1.91279 on 4 procs for 100000 steps with 1000 atoms

unfix 3

fix 4 all nvt temp 370000 300 100.0

run 20000
Generated 0 of 1 mixed pair_coeff terms from geometric mixing rule
Step          Temp          Press          PotEng        Density         KinEng         TotEng           Lx             Ly             Lz            Xlo            Xhi            Ylo            Yhi            Zlo            Zhi           Volume           Dt            Time           CPU           T/CPU          S/CPU         CPULeft
180000   367644.23      0.59830064    -444247.51      0.0067671982   1094781.8      650534.24      4200           4200           4200          -100            4100          -100            4100          -100            4100           7.4088e+10     0.25           90000          0              0              0              0
Loop time of 0.387586 on 4 procs for 20000 steps with 1000 atoms

unfix 4

fix 5 all npt temp 300 300 $(100.0*dt) iso 1.0 1.0 $(1000.0*dt)
fix 5 all npt temp 300 300 25 iso 1.0 1.0 $(1000.0*dt)
fix 5 all npt temp 300 300 25 iso 1.0 1.0 250

run 60000
Generated 0 of 1 mixed pair_coeff terms from geometric mixing rule
Step          Temp          Press          PotEng        Density         KinEng         TotEng           Lx             Ly             Lz            Xlo            Xhi            Ylo            Yhi            Zlo            Zhi           Volume           Dt            Time           CPU           T/CPU          S/CPU         CPULeft
200000   7846.5196     -0.044798353   -440028.92      0.0067671982   23365.595     -416663.32      4200           4200           4200          -100            4100          -100            4100          -100            4100           7.4088e+10     0.25           95000          0              0              0              0
Averages over the last 7 of 13 rows, steps 230000 to 260000:
Temp Press PotEng Density KinEng TotEng Lx Ly Lz Xlo Xhi Ylo Yhi Zlo Zhi Volume Dt
343.891 0.999193 -571495 0.0103583 1024.05 -570471 3645.24 3645.24 3645.24 177.381 3822.62 177.381 3822.62 177.381 3822.62 4.84543e+10 0.25
Loop time of 2.13325 on 4 procs for 60000 steps with 1000 atoms

# run_style
run_style verlet

# write restart
write_restart ./pgnpmf/64/equpmf1.res
System init for write_restart ...
Generated 0 of 1 mixed pair_coeff terms from geometric mixing rule
