LAMMPS (23 Jun 2022 - Update 1)
# Read restart
read_restart ./pgnpmf/64/equpmf58.res
Reading restart file ...
  restart file = 23 Jun 2022, LAMMPS = 23 Jun 2022
  restoring atom style atomic from restart
  orthogonal box = (1683.1889 1683.1889 1683.1889) to (2316.8111 2316.8111 2316.8111)
  restoring pair style table from restart
  1000 atoms
  read_restart CPU = 0.004 seconds

# Settings

pair_style table spline 9941

pair_coeff 1 1 ./pgnpmf/N20.txt DE_GNP 75.6
pair_coeff 2 2 ./pgnpmf/N100.txt DE_GNP 115.92
pair_coeff 1 2 ./pgnpmf/mixed_potential.txt DE_GNP 95.66

#Neigh_list Calc Frequency

neigh_modify delay 0 every 1 check yes

# Saving Frequency (50 frames)

variable ts_save equal 5000

variable nts equal 5000/0.25
variable medium equal 20000*3
variable long equal 20000*5

# Dump
#dump_modify 1 first no sort id
dump 2 all cfg 50000 ./pgnpmf/64/equilibration/trajectory/dumpequ.tens_*.cfg mass type xs ys zs fx fy fz
dump_modify 2 element N20 N100

# thermo_style
thermo_style custom step temp press pe density ke etotal lx ly lz xlo xhi ylo yhi zlo zhi vol dt time cpu tpcpu spcpu cpuremain

# run info
timestep 0.25
thermo 5000

# fix

fix 1 all momentum 1000 linear 1 1 1 angular
variable T equal 300
fix 2 all nvt temp 300 370000 100.0

run 20000
Generated 0 of 1 mixed pair_coeff terms from geometric mixing rule
Unused restart file global fix info:
  fix style: npt, fix ID: 5
  update every 1 steps, delay 0 steps, check yes
Step          Temp          Press          PotEng        Density         KinEng         TotEng           Lx             Ly             Lz            Xlo            Xhi            Ylo            Yhi            Zlo            Zhi           Volume           Dt            Time           CPU           T/CPU          S/CPU         CPULeft
11660000   328.26476      2.493832      -26544722       1.9709042      977.51641     -26543744       633.62225      633.62225      633.62225      1683.1889      2316.8111      1683.1889      2316.8111      1683.1889      2316.8111      2.5438485e+08  0.25           2960000        0              0              0              0
Loop time of 1.52781 on 4 procs for 20000 steps with 1000 atoms

unfix 2

fix 3 all nvt temp 370000 370000 $(100.0*dt) #iso 1.0 1.0 $(1000.0*dt)
fix 3 all nvt temp 370000 370000 25

run 100000
Generated 0 of 1 mixed pair_coeff terms from geometric mixing rule
Step          Temp          Press          PotEng        Density         KinEng         TotEng           Lx             Ly             Lz            Xlo            Xhi            Ylo            Yhi            Zlo            Zhi           Volume           Dt            Time           CPU           T/CPU          S/CPU         CPULeft
11680000   371334.95      889.00633     -26201169       1.9709042      1105772.1     -25095397       633.62225      633.62225      633.62225      1683.1889      2316.8111      1683.1889      2316.8111      1683.1889      2316.8111      2.5438485e+08  0.25           2965000        0              0              0              0
Averages over the last 11 of 21 rows, steps 11730000 to 11780000:
Temp Press PotEng Density KinEng TotEng Lx Ly Lz Xlo Xhi Ylo Yhi Zlo Zhi Volume Dt
358990 2056.95 -2.59115e+07 1.9709 1.06901e+06 -2.48425e+07 633.622 633.622 633.622 1683.19 2316.81 1683.19 2316.81 1683.19 2316.81 2.54385e+08 0.25
Loop time of 7.86762 on 4 procs for 100000 steps with 1000 atoms

unfix 3

fix 4 all nvt temp 370000 300 100.0

run 20000
Generated 0 of 1 mixed pair_coeff terms from geometric mixing rule
Step          Temp          Press          PotEng        Density         KinEng         TotEng           Lx             Ly             Lz            Xlo            Xhi            Ylo            Yhi            Zlo            Zhi           Volume           Dt            Time           CPU           T/CPU          S/CPU         CPULeft
11780000   376749.32      2147.2119     -25803558       1.9709042      1121895.1     -24681663       633.62225      633.62225      633.62225      1683.1889      2316.8111      1683.1889      2316.8111      1683.1889      2316.8111      2.5438485e+08  0.25           2990000        0              0              0              0
Loop time of 1.56932 on 4 procs for 20000 steps with 1000 atoms

unfix 4

fix 5 all npt temp 300 300 $(100.0*dt) iso 1.0 1.0 $(1000.0*dt)
fix 5 all npt temp 300 300 25 iso 1.0 1.0 $(1000.0*dt)
fix 5 all npt temp 300 300 25 iso 1.0 1.0 250

run 60000
Generated 0 of 1 mixed pair_coeff terms from geometric mixing rule
Step          Temp          Press          PotEng        Density         KinEng         TotEng           Lx             Ly             Lz            Xlo            Xhi            Ylo            Yhi            Zlo            Zhi           Volume           Dt            Time           CPU           T/CPU          S/CPU         CPULeft
11800000   9628.9233      469.6503      -26449059       1.9709042      28673.289     -26420386       633.62225      633.62225      633.62225      1683.1889      2316.8111      1683.1889      2316.8111      1683.1889      2316.8111      2.5438485e+08  0.25           2995000        0              0              0              0
Averages over the last 7 of 13 rows, steps 11830000 to 11860000:
Temp Press PotEng Density KinEng TotEng Lx Ly Lz Xlo Xhi Ylo Yhi Zlo Zhi Volume Dt
329.881 0.185102 -2.6571e+07 1.96846 982.33 -2.657e+07 633.885 633.885 633.885 1683.06 2316.94 1683.06 2316.94 1683.06 2316.94 2.54701e+08 0.25
Loop time of 5.47209 on 4 procs for 60000 steps with 1000 atoms

# run_style
run_style verlet

# write restart
write_restart ./pgnpmf/64/equpmf59.res
System init for write_restart ...
Generated 0 of 1 mixed pair_coeff terms from geometric mixing rule
