LAMMPS (23 Jun 2022 - Update 1)
# Read restart
read_restart ./pgnpmf/64/equpmf44.res
Reading restart file ...
  restart file = 23 Jun 2022, LAMMPS = 23 Jun 2022
  restoring atom style atomic from restart
  orthogonal box = (1676.6167 1676.6167 1676.6167) to (2323.3833 2323.3833 2323.3833)
  restoring pair style table from restart
  1000 atoms
  read_restart CPU = 0.004 seconds

# Settings

pair_style table spline 9941

pair_coeff 1 1 ./pgnpmf/N20.txt DE_GNP 75.6
pair_coeff 2 2 ./pgnpmf/N100.txt DE_GNP 115.92
pair_coeff 1 2 ./pgnpmf/mixed_potential.txt DE_GNP 95.66

#Neigh_list Calc Frequency

neigh_modify delay 0 every 1 check yes

# Saving Frequency (50 frames)

variable ts_save equal 5000

variable nts equal 5000/0.25
variable medium equal 20000*3
variable long equal 20000*5

# Dump
#dump_modify 1 first no sort id
dump 2 all cfg 50000 ./pgnpmf/64/equilibration/trajectory/dumpequ.tens_*.cfg mass type xs ys zs fx fy fz
dump_modify 2 element N20 N100

# thermo_style
thermo_style custom step temp press pe density ke etotal lx ly lz xlo xhi ylo yhi zlo zhi vol dt time cpu tpcpu spcpu cpuremain

# run info
timestep 0.25
thermo 5000

# fix

fix 1 all momentum 1000 linear 1 1 1 angular
variable T equal 300
fix 2 all nvt temp 300 370000 100.0

run 20000
Generated 0 of 1 mixed pair_coeff terms from geometric mixing rule
Unused restart file global fix info:
  fix style: npt, fix ID: 5
  update every 1 steps, delay 0 steps, check yes
Step          Temp          Press          PotEng        Density         KinEng         TotEng           Lx             Ly             Lz            Xlo            Xhi            Ylo            Yhi            Zlo            Zhi           Volume           Dt            Time           CPU           T/CPU          S/CPU         CPULeft
8860000   333.26901      2.4737137     -25461240       1.8531643      992.41821     -25460247       646.76664      646.76664      646.76664      1676.6167      2323.3833      1676.6167      2323.3833      1676.6167      2323.3833      2.7054707e+08  0.25           2260000        0              0              0              0
Loop time of 1.49645 on 4 procs for 20000 steps with 1000 atoms

unfix 2

fix 3 all nvt temp 370000 370000 $(100.0*dt) #iso 1.0 1.0 $(1000.0*dt)
fix 3 all nvt temp 370000 370000 25

run 100000
Generated 0 of 1 mixed pair_coeff terms from geometric mixing rule
Step          Temp          Press          PotEng        Density         KinEng         TotEng           Lx             Ly             Lz            Xlo            Xhi            Ylo            Yhi            Zlo            Zhi           Volume           Dt            Time           CPU           T/CPU          S/CPU         CPULeft
8880000   369188.38      582.74733     -25280294       1.8531643      1099379.9     -24180914       646.76664      646.76664      646.76664      1676.6167      2323.3833      1676.6167      2323.3833      1676.6167      2323.3833      2.7054707e+08  0.25           2265000        0              0              0              0
Averages over the last 11 of 21 rows, steps 8930000 to 8980000:
Temp Press PotEng Density KinEng TotEng Lx Ly Lz Xlo Xhi Ylo Yhi Zlo Zhi Volume Dt
369225 1177.89 -2.49972e+07 1.85316 1.09949e+06 -2.38977e+07 646.767 646.767 646.767 1676.62 2323.38 1676.62 2323.38 1676.62 2323.38 2.70547e+08 0.25
Loop time of 7.58855 on 4 procs for 100000 steps with 1000 atoms

unfix 3

fix 4 all nvt temp 370000 300 100.0

run 20000
Generated 0 of 1 mixed pair_coeff terms from geometric mixing rule
Step          Temp          Press          PotEng        Density         KinEng         TotEng           Lx             Ly             Lz            Xlo            Xhi            Ylo            Yhi            Zlo            Zhi           Volume           Dt            Time           CPU           T/CPU          S/CPU         CPULeft
8980000   386003.83      1204.2254     -24938736       1.8531643      1149453.5     -23789282       646.76664      646.76664      646.76664      1676.6167      2323.3833      1676.6167      2323.3833      1676.6167      2323.3833      2.7054707e+08  0.25           2290000        0              0              0              0
Loop time of 1.50831 on 4 procs for 20000 steps with 1000 atoms

unfix 4

fix 5 all npt temp 300 300 $(100.0*dt) iso 1.0 1.0 $(1000.0*dt)
fix 5 all npt temp 300 300 25 iso 1.0 1.0 $(1000.0*dt)
fix 5 all npt temp 300 300 25 iso 1.0 1.0 250

run 60000
Generated 0 of 1 mixed pair_coeff terms from geometric mixing rule
Step          Temp          Press          PotEng        Density         KinEng         TotEng           Lx             Ly             Lz            Xlo            Xhi            Ylo            Yhi            Zlo            Zhi           Volume           Dt            Time           CPU           T/CPU          S/CPU         CPULeft
9000000   9402.139      -262.01942     -25358693       1.8531643      27997.965     -25330695       646.76664      646.76664      646.76664      1676.6167      2323.3833      1676.6167      2323.3833      1676.6167      2323.3833      2.7054707e+08  0.25           2295000        0              0              0              0
Averages over the last 7 of 13 rows, steps 9030000 to 9060000:
Temp Press PotEng Density KinEng TotEng Lx Ly Lz Xlo Xhi Ylo Yhi Zlo Zhi Volume Dt
334.112 -2.17404 -2.56475e+07 1.88215 994.929 -2.56465e+07 643.43 643.43 643.43 1678.28 2321.72 1678.28 2321.72 1678.28 2321.72 2.66382e+08 0.25
Loop time of 5.31954 on 4 procs for 60000 steps with 1000 atoms

# run_style
run_style verlet

# write restart
write_restart ./pgnpmf/64/equpmf45.res
System init for write_restart ...
Generated 0 of 1 mixed pair_coeff terms from geometric mixing rule
