LAMMPS (23 Jun 2022 - Update 1)
# Read restart
read_restart ./pgnpmf/64/equpmf48.res
Reading restart file ...
  restart file = 23 Jun 2022, LAMMPS = 23 Jun 2022
  restoring atom style atomic from restart
  orthogonal box = (1681.673 1681.673 1681.673) to (2318.327 2318.327 2318.327)
  restoring pair style table from restart
  1000 atoms
  read_restart CPU = 0.017 seconds

# Settings

pair_style table spline 9941

pair_coeff 1 1 ./pgnpmf/N20.txt DE_GNP 75.6
pair_coeff 2 2 ./pgnpmf/N100.txt DE_GNP 115.92
pair_coeff 1 2 ./pgnpmf/mixed_potential.txt DE_GNP 95.66

#Neigh_list Calc Frequency

neigh_modify delay 0 every 1 check yes

# Saving Frequency (50 frames)

variable ts_save equal 5000

variable nts equal 5000/0.25
variable medium equal 20000*3
variable long equal 20000*5

# Dump
#dump_modify 1 first no sort id
dump 2 all cfg 50000 ./pgnpmf/64/equilibration/trajectory/dumpequ.tens_*.cfg mass type xs ys zs fx fy fz
dump_modify 2 element N20 N100

# thermo_style
thermo_style custom step temp press pe density ke etotal lx ly lz xlo xhi ylo yhi zlo zhi vol dt time cpu tpcpu spcpu cpuremain

# run info
timestep 0.25
thermo 5000

# fix

fix 1 all momentum 1000 linear 1 1 1 angular
variable T equal 300
fix 2 all nvt temp 300 370000 100.0

run 20000
Generated 0 of 1 mixed pair_coeff terms from geometric mixing rule
Unused restart file global fix info:
  fix style: npt, fix ID: 5
  update every 1 steps, delay 0 steps, check yes
Step          Temp          Press          PotEng        Density         KinEng         TotEng           Lx             Ly             Lz            Xlo            Xhi            Ylo            Yhi            Zlo            Zhi           Volume           Dt            Time           CPU           T/CPU          S/CPU         CPULeft
9660000   329.66708      3.447341      -26318001       1.9428808      981.69228     -26317019       636.65409      636.65409      636.65409      1681.673       2318.327       1681.673       2318.327       1681.673       2318.327       2.5805401e+08  0.25           2460000        0              0              0              0
Loop time of 1.53871 on 4 procs for 20000 steps with 1000 atoms

unfix 2

fix 3 all nvt temp 370000 370000 $(100.0*dt) #iso 1.0 1.0 $(1000.0*dt)
fix 3 all nvt temp 370000 370000 25

run 100000
Generated 0 of 1 mixed pair_coeff terms from geometric mixing rule
Step          Temp          Press          PotEng        Density         KinEng         TotEng           Lx             Ly             Lz            Xlo            Xhi            Ylo            Yhi            Zlo            Zhi           Volume           Dt            Time           CPU           T/CPU          S/CPU         CPULeft
9680000   370907.24      848.16791     -25993173       1.9428808      1104498.4     -24888675       636.65409      636.65409      636.65409      1681.673       2318.327       1681.673       2318.327       1681.673       2318.327       2.5805401e+08  0.25           2465000        0              0              0              0
Averages over the last 11 of 21 rows, steps 9730000 to 9780000:
Temp Press PotEng Density KinEng TotEng Lx Ly Lz Xlo Xhi Ylo Yhi Zlo Zhi Volume Dt
366895 1846.02 -2.56659e+07 1.94288 1.09255e+06 -2.45734e+07 636.654 636.654 636.654 1681.67 2318.33 1681.67 2318.33 1681.67 2318.33 2.58054e+08 0.25
Loop time of 7.91463 on 4 procs for 100000 steps with 1000 atoms

unfix 3

fix 4 all nvt temp 370000 300 100.0

run 20000
Generated 0 of 1 mixed pair_coeff terms from geometric mixing rule
Step          Temp          Press          PotEng        Density         KinEng         TotEng           Lx             Ly             Lz            Xlo            Xhi            Ylo            Yhi            Zlo            Zhi           Volume           Dt            Time           CPU           T/CPU          S/CPU         CPULeft
9780000   374422.45      1773.4168     -25692598       1.9428808      1114966.1     -24577632       636.65409      636.65409      636.65409      1681.673       2318.327       1681.673       2318.327       1681.673       2318.327       2.5805401e+08  0.25           2490000        0              0              0              0
Loop time of 1.56445 on 4 procs for 20000 steps with 1000 atoms

unfix 4

fix 5 all npt temp 300 300 $(100.0*dt) iso 1.0 1.0 $(1000.0*dt)
fix 5 all npt temp 300 300 25 iso 1.0 1.0 $(1000.0*dt)
fix 5 all npt temp 300 300 25 iso 1.0 1.0 250

run 60000
Generated 0 of 1 mixed pair_coeff terms from geometric mixing rule
Step          Temp          Press          PotEng        Density         KinEng         TotEng           Lx             Ly             Lz            Xlo            Xhi            Ylo            Yhi            Zlo            Zhi           Volume           Dt            Time           CPU           T/CPU          S/CPU         CPULeft
9800000   9715.2997      398.28611     -26129428       1.9428808      28930.504     -26100498       636.65409      636.65409      636.65409      1681.673       2318.327       1681.673       2318.327       1681.673       2318.327       2.5805401e+08  0.25           2495000        0              0              0              0
Averages over the last 7 of 13 rows, steps 9830000 to 9860000:
Temp Press PotEng Density KinEng TotEng Lx Ly Lz Xlo Xhi Ylo Yhi Zlo Zhi Volume Dt
331.299 3.3209 -2.6264e+07 1.94308 986.552 -2.6263e+07 636.633 636.633 636.633 1681.68 2318.32 1681.68 2318.32 1681.68 2318.32 2.58028e+08 0.25
Loop time of 5.42117 on 4 procs for 60000 steps with 1000 atoms

# run_style
run_style verlet

# write restart
write_restart ./pgnpmf/64/equpmf49.res
System init for write_restart ...
Generated 0 of 1 mixed pair_coeff terms from geometric mixing rule
