LAMMPS (23 Jun 2022 - Update 1)
# Read restart
read_restart ./pgnpmf/1090/equpmf60.res
Reading restart file ...
  restart file = 23 Jun 2022, LAMMPS = 23 Jun 2022
  restoring atom style atomic from restart
  orthogonal box = (1629.3134 1629.3134 1629.3134) to (2370.6866 2370.6866 2370.6866)
  restoring pair style table from restart
  1000 atoms
  read_restart CPU = 0.007 seconds

# Settings

pair_style table spline 9941

pair_coeff 1 1 ./pgnpmf/N20.txt DE_GNP 75.6
pair_coeff 2 2 ./pgnpmf/N100.txt DE_GNP 115.92
pair_coeff 1 2 ./pgnpmf/mixed_potential.txt DE_GNP 95.66

#Neigh_list Calc Frequency

neigh_modify delay 0 every 1 check yes

# Saving Frequency (50 frames)

variable ts_save equal 5000

# Dump
#dump_modify 1 first no sort id
dump 2 all cfg 50000 ./pgnpmf/1090/equilibration/trajectory/dumpgen.tens_*.cfg mass type xs ys zs fx fy fz
dump_modify 2 element N20 N100

# thermo_style
thermo_style custom step temp press pe density ke etotal lx ly lz xlo xhi ylo yhi zlo zhi vol dt time cpu tpcpu spcpu cpuremain

# run info
timestep 0.25
thermo 200

# fix

fix 1 all momentum 1000 linear 1 1 1 angular
variable T equal 300
fix 2 all nvt temp 300 370000 100.0

run 100000
Generated 0 of 1 mixed pair_coeff terms from geometric mixing rule
Unused restart file global fix info:
  fix style: npt, fix ID: 5
  update every 1 steps, delay 0 steps, check yes
Step          Temp          Press          PotEng        Density         KinEng         TotEng           Lx             Ly             Lz            Xlo            Xhi            Ylo            Yhi            Zlo            Zhi           Volume           Dt            Time           CPU           T/CPU          S/CPU         CPULeft
61010000   290.25469      3.0131173     -56337087       1.6383166      864.32891     -56336222       741.37328      741.37328      741.37328      1629.3134      2370.6866      1629.3134      2370.6866      1629.3134      2370.6866      4.0748421e+08  0.25           16010000       0              0              0              0
Averages over the last 251 of 501 rows, steps 61060000 to 61110000:
Temp Press PotEng Density KinEng TotEng Lx Ly Lz Xlo Xhi Ylo Yhi Zlo Zhi Volume Dt
276893 1382.07 -5.56493e+07 1.63832 824539 -5.48248e+07 741.373 741.373 741.373 1629.31 2370.69 1629.31 2370.69 1629.31 2370.69 4.07484e+08 0.25
Loop time of 6.76262 on 4 procs for 100000 steps with 1000 atoms

unfix 2

fix 3 all nvt temp 370000 370000 $(100.0*dt) #iso 1.0 1.0 $(1000.0*dt)
fix 3 all nvt temp 370000 370000 25

run 500000
Generated 0 of 1 mixed pair_coeff terms from geometric mixing rule
Step          Temp          Press          PotEng        Density         KinEng         TotEng           Lx             Ly             Lz            Xlo            Xhi            Ylo            Yhi            Zlo            Zhi           Volume           Dt            Time           CPU           T/CPU          S/CPU         CPULeft
61110000   376673.84      1990.5862     -55175942       1.6383166      1121670.4     -54054272       741.37328      741.37328      741.37328      1629.3134      2370.6866      1629.3134      2370.6866      1629.3134      2370.6866      4.0748421e+08  0.25           16035000       0              0              0              0
Averages over the last 1251 of 2501 rows, steps 61360000 to 61610000:
Temp Press PotEng Density KinEng TotEng Lx Ly Lz Xlo Xhi Ylo Yhi Zlo Zhi Volume Dt
370007 1878.05 -5.52602e+07 1.63832 1.10182e+06 -5.41584e+07 741.373 741.373 741.373 1629.31 2370.69 1629.31 2370.69 1629.31 2370.69 4.07484e+08 0.25
Loop time of 33.7334 on 4 procs for 500000 steps with 1000 atoms

unfix 3

fix 4 all nvt temp 370000 300 100.0

run 100000
Generated 0 of 1 mixed pair_coeff terms from geometric mixing rule
Step          Temp          Press          PotEng        Density         KinEng         TotEng           Lx             Ly             Lz            Xlo            Xhi            Ylo            Yhi            Zlo            Zhi           Volume           Dt            Time           CPU           T/CPU          S/CPU         CPULeft
61610000   371667.83      1818.5263     -55195458       1.6383166      1106763.3     -54088695       741.37328      741.37328      741.37328      1629.3134      2370.6866      1629.3134      2370.6866      1629.3134      2370.6866      4.0748421e+08  0.25           16160000       0              0              0              0
Averages over the last 251 of 501 rows, steps 61660000 to 61710000:
Temp Press PotEng Density KinEng TotEng Lx Ly Lz Xlo Xhi Ylo Yhi Zlo Zhi Volume Dt
93431.9 535.342 -5.58972e+07 1.63832 278224 -5.5619e+07 741.373 741.373 741.373 1629.31 2370.69 1629.31 2370.69 1629.31 2370.69 4.07484e+08 0.25
Loop time of 6.70041 on 4 procs for 100000 steps with 1000 atoms

unfix 4

fix 5 all npt temp 300 300 $(100.0*dt) iso 1.0 1.0 $(1000.0*dt)
fix 5 all npt temp 300 300 25 iso 1.0 1.0 $(1000.0*dt)
fix 5 all npt temp 300 300 25 iso 1.0 1.0 250

run 300000
Generated 0 of 1 mixed pair_coeff terms from geometric mixing rule
Step          Temp          Press          PotEng        Density         KinEng         TotEng           Lx             Ly             Lz            Xlo            Xhi            Ylo            Yhi            Zlo            Zhi           Volume           Dt            Time           CPU           T/CPU          S/CPU         CPULeft
61710000   2375.6354      137.48687     -56124626       1.6383166      7074.2366     -56117552       741.37328      741.37328      741.37328      1629.3134      2370.6866      1629.3134      2370.6866      1629.3134      2370.6866      4.0748421e+08  0.25           16185000       0              0              0              0
Averages over the last 751 of 1501 rows, steps 61860000 to 62010000:
Temp Press PotEng Density KinEng TotEng Lx Ly Lz Xlo Xhi Ylo Yhi Zlo Zhi Volume Dt
301.56 0.891978 -5.62462e+07 1.63749 897.993 -5.62453e+07 741.497 741.497 741.497 1629.25 2370.75 1629.25 2370.75 1629.25 2370.75 4.07689e+08 0.25
Loop time of 23.7816 on 4 procs for 300000 steps with 1000 atoms

# run_style
run_style verlet

# write restart
write_restart ./pgnpmf/1090/equpmf61.res
System init for write_restart ...
Generated 0 of 1 mixed pair_coeff terms from geometric mixing rule
