LAMMPS (23 Jun 2022 - Update 1)
# Read restart
read_restart ./pgnpmf/1090/equpmf23.res
Reading restart file ...
  restart file = 23 Jun 2022, LAMMPS = 23 Jun 2022
  restoring atom style atomic from restart
  orthogonal box = (1487.4205 1487.4205 1487.4205) to (2512.5795 2512.5795 2512.5795)
  restoring pair style table from restart
  1000 atoms
  read_restart CPU = 0.004 seconds

# Settings

pair_style table spline 9941

pair_coeff 1 1 ./pgnpmf/N20.txt DE_GNP 75.6
pair_coeff 2 2 ./pgnpmf/N100.txt DE_GNP 115.92
pair_coeff 1 2 ./pgnpmf/mixed_potential.txt DE_GNP 95.66

#Neigh_list Calc Frequency

neigh_modify delay 0 every 1 check yes

# Saving Frequency (50 frames)

variable ts_save equal 5000

# Dump
#dump_modify 1 first no sort id
dump 2 all cfg 50000 ./pgnpmf/1090/equilibration/trajectory/dumpgen.tens_*.cfg mass type xs ys zs fx fy fz
dump_modify 2 element N20 N100

# thermo_style
thermo_style custom step temp press pe density ke etotal lx ly lz xlo xhi ylo yhi zlo zhi vol dt time cpu tpcpu spcpu cpuremain

# run info
timestep 0.25
thermo 200

# fix

fix 1 all momentum 1000 linear 1 1 1 angular
variable T equal 300
fix 2 all nvt temp 300 370000 100.0

run 100000
Generated 0 of 1 mixed pair_coeff terms from geometric mixing rule
Unused restart file global fix info:
  fix style: npt, fix ID: 5
  update every 1 steps, delay 0 steps, check yes
Step          Temp          Press          PotEng        Density         KinEng         TotEng           Lx             Ly             Lz            Xlo            Xhi            Ylo            Yhi            Zlo            Zhi           Volume           Dt            Time           CPU           T/CPU          S/CPU         CPULeft
24010000   310.40581     -1.4518656     -41721634       0.61963349     924.33551     -41720710       1025.159       1025.159       1025.159       1487.4205      2512.5795      1487.4205      2512.5795      1487.4205      2512.5795      1.0773919e+09  0.25           6760000        0              0              0              0
Averages over the last 251 of 501 rows, steps 24060000 to 24110000:
Temp Press PotEng Density KinEng TotEng Lx Ly Lz Xlo Xhi Ylo Yhi Zlo Zhi Volume Dt
277269 92.3647 -4.20498e+07 0.619633 825659 -4.12242e+07 1025.16 1025.16 1025.16 1487.42 2512.58 1487.42 2512.58 1487.42 2512.58 1.07739e+09 0.25
Loop time of 6.96736 on 4 procs for 100000 steps with 1000 atoms

unfix 2

fix 3 all nvt temp 370000 370000 $(100.0*dt) #iso 1.0 1.0 $(1000.0*dt)
fix 3 all nvt temp 370000 370000 25

run 500000
Generated 0 of 1 mixed pair_coeff terms from geometric mixing rule
Step          Temp          Press          PotEng        Density         KinEng         TotEng           Lx             Ly             Lz            Xlo            Xhi            Ylo            Yhi            Zlo            Zhi           Volume           Dt            Time           CPU           T/CPU          S/CPU         CPULeft
24110000   363892.09      155.98029     -42066838       0.61963349     1083608.5     -40983230       1025.159       1025.159       1025.159       1487.4205      2512.5795      1487.4205      2512.5795      1487.4205      2512.5795      1.0773919e+09  0.25           6785000        0              0              0              0
Averages over the last 1251 of 2501 rows, steps 24360000 to 24610000:
Temp Press PotEng Density KinEng TotEng Lx Ly Lz Xlo Xhi Ylo Yhi Zlo Zhi Volume Dt
370035 -17.8095 -4.10744e+07 0.619633 1.1019e+06 -3.99725e+07 1025.16 1025.16 1025.16 1487.42 2512.58 1487.42 2512.58 1487.42 2512.58 1.07739e+09 0.25
Loop time of 35.692 on 4 procs for 500000 steps with 1000 atoms

unfix 3

fix 4 all nvt temp 370000 300 100.0

run 100000
Generated 0 of 1 mixed pair_coeff terms from geometric mixing rule
Step          Temp          Press          PotEng        Density         KinEng         TotEng           Lx             Ly             Lz            Xlo            Xhi            Ylo            Yhi            Zlo            Zhi           Volume           Dt            Time           CPU           T/CPU          S/CPU         CPULeft
24610000   367661.96     -25.156915     -40908006       0.61963349     1094834.5     -39813172       1025.159       1025.159       1025.159       1487.4205      2512.5795      1487.4205      2512.5795      1487.4205      2512.5795      1.0773919e+09  0.25           6910000        0              0              0              0
Averages over the last 251 of 501 rows, steps 24660000 to 24710000:
Temp Press PotEng Density KinEng TotEng Lx Ly Lz Xlo Xhi Ylo Yhi Zlo Zhi Volume Dt
93715.1 -240.397 -4.18715e+07 0.619633 279068 -4.15924e+07 1025.16 1025.16 1025.16 1487.42 2512.58 1487.42 2512.58 1487.42 2512.58 1.07739e+09 0.25
Loop time of 7.00996 on 4 procs for 100000 steps with 1000 atoms

unfix 4

fix 5 all npt temp 300 300 $(100.0*dt) iso 1.0 1.0 $(1000.0*dt)
fix 5 all npt temp 300 300 25 iso 1.0 1.0 $(1000.0*dt)
fix 5 all npt temp 300 300 25 iso 1.0 1.0 250

run 300000
Generated 0 of 1 mixed pair_coeff terms from geometric mixing rule
Step          Temp          Press          PotEng        Density         KinEng         TotEng           Lx             Ly             Lz            Xlo            Xhi            Ylo            Yhi            Zlo            Zhi           Volume           Dt            Time           CPU           T/CPU          S/CPU         CPULeft
24710000   2368.6677     -297.33679     -42279223       0.61963349     7053.4879     -42272169       1025.159       1025.159       1025.159       1487.4205      2512.5795      1487.4205      2512.5795      1487.4205      2512.5795      1.0773919e+09  0.25           6935000        0              0              0              0
Averages over the last 751 of 1501 rows, steps 24860000 to 25010000:
Temp Press PotEng Density KinEng TotEng Lx Ly Lz Xlo Xhi Ylo Yhi Zlo Zhi Volume Dt
312.11 1.05288 -4.31105e+07 0.647806 929.409 -4.31095e+07 1010.08 1010.08 1010.08 1494.96 2505.04 1494.96 2505.04 1494.96 2505.04 1.03055e+09 0.25
Loop time of 25.1506 on 4 procs for 300000 steps with 1000 atoms

# run_style
run_style verlet

# write restart
write_restart ./pgnpmf/1090/equpmf24.res
System init for write_restart ...
Generated 0 of 1 mixed pair_coeff terms from geometric mixing rule
