LAMMPS (23 Jun 2022 - Update 1)
# Read restart
read_restart ./pgnpmf/1090/equpmf33.res
Reading restart file ...
  restart file = 23 Jun 2022, LAMMPS = 23 Jun 2022
  restoring atom style atomic from restart
  orthogonal box = (1567.0082 1567.0082 1567.0082) to (2432.9918 2432.9918 2432.9918)
  restoring pair style table from restart
  1000 atoms
  read_restart CPU = 0.003 seconds

# Settings

pair_style table spline 9941

pair_coeff 1 1 ./pgnpmf/N20.txt DE_GNP 75.6
pair_coeff 2 2 ./pgnpmf/N100.txt DE_GNP 115.92
pair_coeff 1 2 ./pgnpmf/mixed_potential.txt DE_GNP 95.66

#Neigh_list Calc Frequency

neigh_modify delay 0 every 1 check yes

# Saving Frequency (50 frames)

variable ts_save equal 5000

# Dump
#dump_modify 1 first no sort id
dump 2 all cfg 50000 ./pgnpmf/1090/equilibration/trajectory/dumpgen.tens_*.cfg mass type xs ys zs fx fy fz
dump_modify 2 element N20 N100

# thermo_style
thermo_style custom step temp press pe density ke etotal lx ly lz xlo xhi ylo yhi zlo zhi vol dt time cpu tpcpu spcpu cpuremain

# run info
timestep 0.25
thermo 200

# fix

fix 1 all momentum 1000 linear 1 1 1 angular
variable T equal 300
fix 2 all nvt temp 300 370000 100.0

run 100000
Generated 0 of 1 mixed pair_coeff terms from geometric mixing rule
Unused restart file global fix info:
  fix style: npt, fix ID: 5
  update every 1 steps, delay 0 steps, check yes
Step          Temp          Press          PotEng        Density         KinEng         TotEng           Lx             Ly             Lz            Xlo            Xhi            Ylo            Yhi            Zlo            Zhi           Volume           Dt            Time           CPU           T/CPU          S/CPU         CPULeft
34010000   308.57312      3.1950287     -49029626       1.027968       918.87805     -49028708       865.98359      865.98359      865.98359      1567.0082      2432.9918      1567.0082      2432.9918      1567.0082      2432.9918      6.4942498e+08  0.25           9260000        0              0              0              0
Averages over the last 251 of 501 rows, steps 34060000 to 34110000:
Temp Press PotEng Density KinEng TotEng Lx Ly Lz Xlo Xhi Ylo Yhi Zlo Zhi Volume Dt
276893 60.4673 -4.85889e+07 1.02797 824541 -4.77643e+07 865.984 865.984 865.984 1567.01 2432.99 1567.01 2432.99 1567.01 2432.99 6.49425e+08 0.25
Loop time of 7.30023 on 4 procs for 100000 steps with 1000 atoms

unfix 2

fix 3 all nvt temp 370000 370000 $(100.0*dt) #iso 1.0 1.0 $(1000.0*dt)
fix 3 all nvt temp 370000 370000 25

run 500000
Generated 0 of 1 mixed pair_coeff terms from geometric mixing rule
Step          Temp          Press          PotEng        Density         KinEng         TotEng           Lx             Ly             Lz            Xlo            Xhi            Ylo            Yhi            Zlo            Zhi           Volume           Dt            Time           CPU           T/CPU          S/CPU         CPULeft
34110000   362011.78      205.12815     -48276750       1.027968       1078009.3     -47198741       865.98359      865.98359      865.98359      1567.0082      2432.9918      1567.0082      2432.9918      1567.0082      2432.9918      6.4942498e+08  0.25           9285000        0              0              0              0
Averages over the last 1251 of 2501 rows, steps 34360000 to 34610000:
Temp Press PotEng Density KinEng TotEng Lx Ly Lz Xlo Xhi Ylo Yhi Zlo Zhi Volume Dt
370022 -33.1502 -4.67804e+07 1.02797 1.10186e+06 -4.56786e+07 865.984 865.984 865.984 1567.01 2432.99 1567.01 2432.99 1567.01 2432.99 6.49425e+08 0.25
Loop time of 35.697 on 4 procs for 500000 steps with 1000 atoms

unfix 3

fix 4 all nvt temp 370000 300 100.0

run 100000
Generated 0 of 1 mixed pair_coeff terms from geometric mixing rule
Step          Temp          Press          PotEng        Density         KinEng         TotEng           Lx             Ly             Lz            Xlo            Xhi            Ylo            Yhi            Zlo            Zhi           Volume           Dt            Time           CPU           T/CPU          S/CPU         CPULeft
34610000   391552.83     -20.220992     -46919717       1.027968       1165977.5     -45753740       865.98359      865.98359      865.98359      1567.0082      2432.9918      1567.0082      2432.9918      1567.0082      2432.9918      6.4942498e+08  0.25           9410000        0              0              0              0
Averages over the last 251 of 501 rows, steps 34660000 to 34710000:
Temp Press PotEng Density KinEng TotEng Lx Ly Lz Xlo Xhi Ylo Yhi Zlo Zhi Volume Dt
93576 -596.555 -4.77309e+07 1.02797 278653 -4.74523e+07 865.984 865.984 865.984 1567.01 2432.99 1567.01 2432.99 1567.01 2432.99 6.49425e+08 0.25
Loop time of 7.08722 on 4 procs for 100000 steps with 1000 atoms

unfix 4

fix 5 all npt temp 300 300 $(100.0*dt) iso 1.0 1.0 $(1000.0*dt)
fix 5 all npt temp 300 300 25 iso 1.0 1.0 $(1000.0*dt)
fix 5 all npt temp 300 300 25 iso 1.0 1.0 250

run 300000
Generated 0 of 1 mixed pair_coeff terms from geometric mixing rule
Step          Temp          Press          PotEng        Density         KinEng         TotEng           Lx             Ly             Lz            Xlo            Xhi            Ylo            Yhi            Zlo            Zhi           Volume           Dt            Time           CPU           T/CPU          S/CPU         CPULeft
34710000   2346.7727     -773.57826     -48058167       1.027968       6988.2883     -48051179       865.98359      865.98359      865.98359      1567.0082      2432.9918      1567.0082      2432.9918      1567.0082      2432.9918      6.4942498e+08  0.25           9435000        0              0              0              0
Averages over the last 751 of 1501 rows, steps 34860000 to 35010000:
Temp Press PotEng Density KinEng TotEng Lx Ly Lz Xlo Xhi Ylo Yhi Zlo Zhi Volume Dt
311.165 1.04063 -4.90954e+07 1.08093 926.596 -4.90945e+07 851.604 851.604 851.604 1574.2 2425.8 1574.2 2425.8 1574.2 2425.8 6.17609e+08 0.25
Loop time of 25.592 on 4 procs for 300000 steps with 1000 atoms

# run_style
run_style verlet

# write restart
write_restart ./pgnpmf/1090/equpmf34.res
System init for write_restart ...
Generated 0 of 1 mixed pair_coeff terms from geometric mixing rule
