LAMMPS (23 Jun 2022 - Update 1)
# Read restart
read_restart ./pgnpmf/1090/equpmf25.res
Reading restart file ...
  restart file = 23 Jun 2022, LAMMPS = 23 Jun 2022
  restoring atom style atomic from restart
  orthogonal box = (1504.0449 1504.0449 1504.0449) to (2495.9551 2495.9551 2495.9551)
  restoring pair style table from restart
  1000 atoms
  read_restart CPU = 0.002 seconds

# Settings

pair_style table spline 9941

pair_coeff 1 1 ./pgnpmf/N20.txt DE_GNP 75.6
pair_coeff 2 2 ./pgnpmf/N100.txt DE_GNP 115.92
pair_coeff 1 2 ./pgnpmf/mixed_potential.txt DE_GNP 95.66

#Neigh_list Calc Frequency

neigh_modify delay 0 every 1 check yes

# Saving Frequency (50 frames)

variable ts_save equal 5000

# Dump
#dump_modify 1 first no sort id
dump 2 all cfg 50000 ./pgnpmf/1090/equilibration/trajectory/dumpgen.tens_*.cfg mass type xs ys zs fx fy fz
dump_modify 2 element N20 N100

# thermo_style
thermo_style custom step temp press pe density ke etotal lx ly lz xlo xhi ylo yhi zlo zhi vol dt time cpu tpcpu spcpu cpuremain

# run info
timestep 0.25
thermo 200

# fix

fix 1 all momentum 1000 linear 1 1 1 angular
variable T equal 300
fix 2 all nvt temp 300 370000 100.0

run 100000
Generated 0 of 1 mixed pair_coeff terms from geometric mixing rule
Unused restart file global fix info:
  fix style: npt, fix ID: 5
  update every 1 steps, delay 0 steps, check yes
Step          Temp          Press          PotEng        Density         KinEng         TotEng           Lx             Ly             Lz            Xlo            Xhi            Ylo            Yhi            Zlo            Zhi           Volume           Dt            Time           CPU           T/CPU          S/CPU         CPULeft
26010000   309.54563      0.61076434    -44028569       0.68405596     921.77403     -44027647       991.91013      991.91013      991.91013      1504.0449      2495.9551      1504.0449      2495.9551      1504.0449      2495.9551      9.7592618e+08  0.25           7260000        0              0              0              0
Averages over the last 251 of 501 rows, steps 26060000 to 26110000:
Temp Press PotEng Density KinEng TotEng Lx Ly Lz Xlo Xhi Ylo Yhi Zlo Zhi Volume Dt
277386 125.905 -4.40314e+07 0.684056 826009 -4.32054e+07 991.91 991.91 991.91 1504.04 2495.96 1504.04 2495.96 1504.04 2495.96 9.75926e+08 0.25
Loop time of 7.25775 on 4 procs for 100000 steps with 1000 atoms

unfix 2

fix 3 all nvt temp 370000 370000 $(100.0*dt) #iso 1.0 1.0 $(1000.0*dt)
fix 3 all nvt temp 370000 370000 25

run 500000
Generated 0 of 1 mixed pair_coeff terms from geometric mixing rule
Step          Temp          Press          PotEng        Density         KinEng         TotEng           Lx             Ly             Lz            Xlo            Xhi            Ylo            Yhi            Zlo            Zhi           Volume           Dt            Time           CPU           T/CPU          S/CPU         CPULeft
26110000   366810.7       196.33986     -43765269       0.68405596     1092299.6     -42672969       991.91013      991.91013      991.91013      1504.0449      2495.9551      1504.0449      2495.9551      1504.0449      2495.9551      9.7592618e+08  0.25           7285000        0              0              0              0
Averages over the last 1251 of 2501 rows, steps 26360000 to 26610000:
Temp Press PotEng Density KinEng TotEng Lx Ly Lz Xlo Xhi Ylo Yhi Zlo Zhi Volume Dt
370030 -19.2424 -4.19168e+07 0.684056 1.10189e+06 -4.08149e+07 991.91 991.91 991.91 1504.04 2495.96 1504.04 2495.96 1504.04 2495.96 9.75926e+08 0.25
Loop time of 36.7654 on 4 procs for 500000 steps with 1000 atoms

unfix 3

fix 4 all nvt temp 370000 300 100.0

run 100000
Generated 0 of 1 mixed pair_coeff terms from geometric mixing rule
Step          Temp          Press          PotEng        Density         KinEng         TotEng           Lx             Ly             Lz            Xlo            Xhi            Ylo            Yhi            Zlo            Zhi           Volume           Dt            Time           CPU           T/CPU          S/CPU         CPULeft
26610000   364982        -13.718653     -42014786       0.68405596     1086854.1     -40927932       991.91013      991.91013      991.91013      1504.0449      2495.9551      1504.0449      2495.9551      1504.0449      2495.9551      9.7592618e+08  0.25           7410000        0              0              0              0
Averages over the last 251 of 501 rows, steps 26660000 to 26710000:
Temp Press PotEng Density KinEng TotEng Lx Ly Lz Xlo Xhi Ylo Yhi Zlo Zhi Volume Dt
93807.9 -319.372 -4.27536e+07 0.684056 279344 -4.24743e+07 991.91 991.91 991.91 1504.04 2495.96 1504.04 2495.96 1504.04 2495.96 9.75926e+08 0.25
Loop time of 7.2505 on 4 procs for 100000 steps with 1000 atoms

unfix 4

fix 5 all npt temp 300 300 $(100.0*dt) iso 1.0 1.0 $(1000.0*dt)
fix 5 all npt temp 300 300 25 iso 1.0 1.0 $(1000.0*dt)
fix 5 all npt temp 300 300 25 iso 1.0 1.0 250

run 300000
Generated 0 of 1 mixed pair_coeff terms from geometric mixing rule
Step          Temp          Press          PotEng        Density         KinEng         TotEng           Lx             Ly             Lz            Xlo            Xhi            Ylo            Yhi            Zlo            Zhi           Volume           Dt            Time           CPU           T/CPU          S/CPU         CPULeft
26710000   2363.3873     -381.52201     -43152532       0.68405596     7037.7638     -43145494       991.91013      991.91013      991.91013      1504.0449      2495.9551      1504.0449      2495.9551      1504.0449      2495.9551      9.7592618e+08  0.25           7435000        0              0              0              0
Averages over the last 751 of 1501 rows, steps 26860000 to 27010000:
Temp Press PotEng Density KinEng TotEng Lx Ly Lz Xlo Xhi Ylo Yhi Zlo Zhi Volume Dt
311.611 0.998243 -4.39954e+07 0.71774 927.923 -4.39945e+07 976.146 976.146 976.146 1511.93 2488.07 1511.93 2488.07 1511.93 2488.07 9.30136e+08 0.25
Loop time of 25.5276 on 4 procs for 300000 steps with 1000 atoms

# run_style
run_style verlet

# write restart
write_restart ./pgnpmf/1090/equpmf26.res
System init for write_restart ...
Generated 0 of 1 mixed pair_coeff terms from geometric mixing rule
