LAMMPS (23 Jun 2022 - Update 1)
# Read restart
read_restart ./pgnpmf/1090/equpmf29.res
Reading restart file ...
  restart file = 23 Jun 2022, LAMMPS = 23 Jun 2022
  restoring atom style atomic from restart
  orthogonal box = (1536.4409 1536.4409 1536.4409) to (2463.5591 2463.5591 2463.5591)
  restoring pair style table from restart
  1000 atoms
  read_restart CPU = 0.005 seconds

# Settings

pair_style table spline 9941

pair_coeff 1 1 ./pgnpmf/N20.txt DE_GNP 75.6
pair_coeff 2 2 ./pgnpmf/N100.txt DE_GNP 115.92
pair_coeff 1 2 ./pgnpmf/mixed_potential.txt DE_GNP 95.66

#Neigh_list Calc Frequency

neigh_modify delay 0 every 1 check yes

# Saving Frequency (50 frames)

variable ts_save equal 5000

# Dump
#dump_modify 1 first no sort id
dump 2 all cfg 50000 ./pgnpmf/1090/equilibration/trajectory/dumpgen.tens_*.cfg mass type xs ys zs fx fy fz
dump_modify 2 element N20 N100

# thermo_style
thermo_style custom step temp press pe density ke etotal lx ly lz xlo xhi ylo yhi zlo zhi vol dt time cpu tpcpu spcpu cpuremain

# run info
timestep 0.25
thermo 200

# fix

fix 1 all momentum 1000 linear 1 1 1 angular
variable T equal 300
fix 2 all nvt temp 300 370000 100.0

run 100000
Generated 0 of 1 mixed pair_coeff terms from geometric mixing rule
Unused restart file global fix info:
  fix style: npt, fix ID: 5
  update every 1 steps, delay 0 steps, check yes
Step          Temp          Press          PotEng        Density         KinEng         TotEng           Lx             Ly             Lz            Xlo            Xhi            Ylo            Yhi            Zlo            Zhi           Volume           Dt            Time           CPU           T/CPU          S/CPU         CPULeft
30010000   310.76664     -1.3414618     -46697517       0.83772842     925.41        -46696592       927.11822      927.11822      927.11822      1536.4409      2463.5591      1536.4409      2463.5591      1536.4409      2463.5591      7.969028e+08   0.25           8260000        0              0              0              0
Averages over the last 251 of 501 rows, steps 30060000 to 30110000:
Temp Press PotEng Density KinEng TotEng Lx Ly Lz Xlo Xhi Ylo Yhi Zlo Zhi Volume Dt
276895 106.632 -4.64759e+07 0.837728 824546 -4.56514e+07 927.118 927.118 927.118 1536.44 2463.56 1536.44 2463.56 1536.44 2463.56 7.96903e+08 0.25
Loop time of 7.23273 on 4 procs for 100000 steps with 1000 atoms

unfix 2

fix 3 all nvt temp 370000 370000 $(100.0*dt) #iso 1.0 1.0 $(1000.0*dt)
fix 3 all nvt temp 370000 370000 25

run 500000
Generated 0 of 1 mixed pair_coeff terms from geometric mixing rule
Step          Temp          Press          PotEng        Density         KinEng         TotEng           Lx             Ly             Lz            Xlo            Xhi            Ylo            Yhi            Zlo            Zhi           Volume           Dt            Time           CPU           T/CPU          S/CPU         CPULeft
30110000   375222.07      267.03444     -46309331       0.83772842     1117347.3     -45191983       927.11822      927.11822      927.11822      1536.4409      2463.5591      1536.4409      2463.5591      1536.4409      2463.5591      7.969028e+08   0.25           8285000        0              0              0              0
Averages over the last 1251 of 2501 rows, steps 30360000 to 30610000:
Temp Press PotEng Density KinEng TotEng Lx Ly Lz Xlo Xhi Ylo Yhi Zlo Zhi Volume Dt
369851 -1.69172 -4.4865e+07 0.837728 1.10135e+06 -4.37636e+07 927.118 927.118 927.118 1536.44 2463.56 1536.44 2463.56 1536.44 2463.56 7.96903e+08 0.25
Loop time of 36.2549 on 4 procs for 500000 steps with 1000 atoms

unfix 3

fix 4 all nvt temp 370000 300 100.0

run 100000
Generated 0 of 1 mixed pair_coeff terms from geometric mixing rule
Step          Temp          Press          PotEng        Density         KinEng         TotEng           Lx             Ly             Lz            Xlo            Xhi            Ylo            Yhi            Zlo            Zhi           Volume           Dt            Time           CPU           T/CPU          S/CPU         CPULeft
30610000   361686.54     -32.086837     -44747423       0.83772842     1077040.8     -43670383       927.11822      927.11822      927.11822      1536.4409      2463.5591      1536.4409      2463.5591      1536.4409      2463.5591      7.969028e+08   0.25           8410000        0              0              0              0
Averages over the last 251 of 501 rows, steps 30660000 to 30710000:
Temp Press PotEng Density KinEng TotEng Lx Ly Lz Xlo Xhi Ylo Yhi Zlo Zhi Volume Dt
93961.6 -429.305 -4.56871e+07 0.837728 279802 -4.54073e+07 927.118 927.118 927.118 1536.44 2463.56 1536.44 2463.56 1536.44 2463.56 7.96903e+08 0.25
Loop time of 7.37574 on 4 procs for 100000 steps with 1000 atoms

unfix 4

fix 5 all npt temp 300 300 $(100.0*dt) iso 1.0 1.0 $(1000.0*dt)
fix 5 all npt temp 300 300 25 iso 1.0 1.0 $(1000.0*dt)
fix 5 all npt temp 300 300 25 iso 1.0 1.0 250

run 300000
Generated 0 of 1 mixed pair_coeff terms from geometric mixing rule
Step          Temp          Press          PotEng        Density         KinEng         TotEng           Lx             Ly             Lz            Xlo            Xhi            Ylo            Yhi            Zlo            Zhi           Volume           Dt            Time           CPU           T/CPU          S/CPU         CPULeft
30710000   2358.7952     -546.82603     -46069117       0.83772842     7024.0893     -46062093       927.11822      927.11822      927.11822      1536.4409      2463.5591      1536.4409      2463.5591      1536.4409      2463.5591      7.969028e+08   0.25           8435000        0              0              0              0
Averages over the last 751 of 1501 rows, steps 30860000 to 31010000:
Temp Press PotEng Density KinEng TotEng Lx Ly Lz Xlo Xhi Ylo Yhi Zlo Zhi Volume Dt
312.073 1.01106 -4.70687e+07 0.87845 929.301 -4.70678e+07 912.566 912.566 912.566 1543.72 2456.28 1543.72 2456.28 1543.72 2456.28 7.59966e+08 0.25
Loop time of 26.3084 on 4 procs for 300000 steps with 1000 atoms

# run_style
run_style verlet

# write restart
write_restart ./pgnpmf/1090/equpmf30.res
System init for write_restart ...
Generated 0 of 1 mixed pair_coeff terms from geometric mixing rule
