LAMMPS (23 Jun 2022 - Update 1)
# Read restart
read_restart ./pgnpmf/19/equpmf24.res
Reading restart file ...
  restart file = 23 Jun 2022, LAMMPS = 23 Jun 2022
  restoring atom style atomic from restart
  orthogonal box = (1222.5482 1222.5482 1222.5482) to (2777.4518 2777.4518 2777.4518)
  restoring pair style table from restart
  1000 atoms
  read_restart CPU = 0.005 seconds

# Settings

pair_style table spline 9941

pair_coeff 1 1 ./pgnpmf/N20.txt DE_GNP 75.6
pair_coeff 2 2 ./pgnpmf/N100.txt DE_GNP 115.92
pair_coeff 1 2 ./pgnpmf/mixed_potential.txt DE_GNP 95.66

#Neigh_list Calc Frequency

neigh_modify delay 0 every 1 check yes

# Saving Frequency (50 frames)

variable ts_save equal 5000

variable nts equal 5000/0.25
variable medium equal 20000*3
variable long equal 20000*5

# Dump
#dump_modify 1 first no sort id
dump 2 all cfg 50000 ./pgnpmf/19/equilibration/trajectory/dumpequ.tens_*.cfg mass type xs ys zs fx fy fz
dump_modify 2 element N20 N100

# thermo_style
thermo_style custom step temp press pe density ke etotal lx ly lz xlo xhi ylo yhi zlo zhi vol dt time cpu tpcpu spcpu cpuremain

# run info
timestep 0.25
thermo 5000

# fix

fix 1 all momentum 1000 linear 1 1 1 angular
variable T equal 300
fix 2 all nvt temp 300 370000 100.0

run 20000
Generated 0 of 1 mixed pair_coeff terms from geometric mixing rule
Unused restart file global fix info:
  fix style: npt, fix ID: 5
  update every 1 steps, delay 0 steps, check yes
Step          Temp          Press          PotEng        Density         KinEng         TotEng           Lx             Ly             Lz            Xlo            Xhi            Ylo            Yhi            Zlo            Zhi           Volume           Dt            Time           CPU           T/CPU          S/CPU         CPULeft
4860000   341.81832      1.2569009     -28772409       0.1775817      1017.8766     -28771391       1554.9036      1554.9036      1554.9036      1222.5482      2777.4518      1222.5482      2777.4518      1222.5482      2777.4518      3.7593295e+09  0.25           1260000        0              0              0              0
Loop time of 0.827218 on 4 procs for 20000 steps with 1000 atoms

unfix 2

fix 3 all nvt temp 370000 370000 $(100.0*dt) #iso 1.0 1.0 $(1000.0*dt)
fix 3 all nvt temp 370000 370000 25

run 100000
Generated 0 of 1 mixed pair_coeff terms from geometric mixing rule
Step          Temp          Press          PotEng        Density         KinEng         TotEng           Lx             Ly             Lz            Xlo            Xhi            Ylo            Yhi            Zlo            Zhi           Volume           Dt            Time           CPU           T/CPU          S/CPU         CPULeft
4880000   364903.48     -21.349485     -28847519       0.1775817      1086620.3     -27760898       1554.9036      1554.9036      1554.9036      1222.5482      2777.4518      1222.5482      2777.4518      1222.5482      2777.4518      3.7593295e+09  0.25           1265000        0              0              0              0
Averages over the last 11 of 21 rows, steps 4930000 to 4980000:
Temp Press PotEng Density KinEng TotEng Lx Ly Lz Xlo Xhi Ylo Yhi Zlo Zhi Volume Dt
370203 -0.676914 -2.89878e+07 0.177582 1.1024e+06 -2.78854e+07 1554.9 1554.9 1554.9 1222.55 2777.45 1222.55 2777.45 1222.55 2777.45 3.75933e+09 0.25
Loop time of 4.24791 on 4 procs for 100000 steps with 1000 atoms

unfix 3

fix 4 all nvt temp 370000 300 100.0

run 20000
Generated 0 of 1 mixed pair_coeff terms from geometric mixing rule
Step          Temp          Press          PotEng        Density         KinEng         TotEng           Lx             Ly             Lz            Xlo            Xhi            Ylo            Yhi            Zlo            Zhi           Volume           Dt            Time           CPU           T/CPU          S/CPU         CPULeft
4980000   368016.01     -10.404474     -28731879       0.1775817      1095888.8     -27635990       1554.9036      1554.9036      1554.9036      1222.5482      2777.4518      1222.5482      2777.4518      1222.5482      2777.4518      3.7593295e+09  0.25           1290000        0              0              0              0
Loop time of 0.843297 on 4 procs for 20000 steps with 1000 atoms

unfix 4

fix 5 all npt temp 300 300 $(100.0*dt) iso 1.0 1.0 $(1000.0*dt)
fix 5 all npt temp 300 300 25 iso 1.0 1.0 $(1000.0*dt)
fix 5 all npt temp 300 300 25 iso 1.0 1.0 250

run 60000
Generated 0 of 1 mixed pair_coeff terms from geometric mixing rule
Step          Temp          Press          PotEng        Density         KinEng         TotEng           Lx             Ly             Lz            Xlo            Xhi            Ylo            Yhi            Zlo            Zhi           Volume           Dt            Time           CPU           T/CPU          S/CPU         CPULeft
5000000   9071.8315     -67.086246     -28814038       0.1775817      27014.365     -28787024       1554.9036      1554.9036      1554.9036      1222.5482      2777.4518      1222.5482      2777.4518      1222.5482      2777.4518      3.7593295e+09  0.25           1295000        0              0              0              0
Averages over the last 7 of 13 rows, steps 5030000 to 5060000:
Temp Press PotEng Density KinEng TotEng Lx Ly Lz Xlo Xhi Ylo Yhi Zlo Zhi Volume Dt
344.757 1.13151 -2.95042e+07 0.185962 1026.63 -2.95032e+07 1531.19 1531.19 1531.19 1234.4 2765.6 1234.4 2765.6 1234.4 2765.6 3.58995e+09 0.25
Loop time of 3.25545 on 4 procs for 60000 steps with 1000 atoms

# run_style
run_style verlet

# write restart
write_restart ./pgnpmf/19/equpmf25.res
System init for write_restart ...
Generated 0 of 1 mixed pair_coeff terms from geometric mixing rule
