LAMMPS (23 Jun 2022 - Update 1)
# Read restart
read_restart ./pgnpmf/19/equpmf30.res
Reading restart file ...
  restart file = 23 Jun 2022, LAMMPS = 23 Jun 2022
  restoring atom style atomic from restart
  orthogonal box = (1291.3657 1291.3657 1291.3657) to (2708.6343 2708.6343 2708.6343)
  restoring pair style table from restart
  1000 atoms
  read_restart CPU = 0.006 seconds

# Settings

pair_style table spline 9941

pair_coeff 1 1 ./pgnpmf/N20.txt DE_GNP 75.6
pair_coeff 2 2 ./pgnpmf/N100.txt DE_GNP 115.92
pair_coeff 1 2 ./pgnpmf/mixed_potential.txt DE_GNP 95.66

#Neigh_list Calc Frequency

neigh_modify delay 0 every 1 check yes

# Saving Frequency (50 frames)

variable ts_save equal 5000

variable nts equal 5000/0.25
variable medium equal 20000*3
variable long equal 20000*5

# Dump
#dump_modify 1 first no sort id
dump 2 all cfg 50000 ./pgnpmf/19/equilibration/trajectory/dumpequ.tens_*.cfg mass type xs ys zs fx fy fz
dump_modify 2 element N20 N100

# thermo_style
thermo_style custom step temp press pe density ke etotal lx ly lz xlo xhi ylo yhi zlo zhi vol dt time cpu tpcpu spcpu cpuremain

# run info
timestep 0.25
thermo 5000

# fix

fix 1 all momentum 1000 linear 1 1 1 angular
variable T equal 300
fix 2 all nvt temp 300 370000 100.0

run 20000
Generated 0 of 1 mixed pair_coeff terms from geometric mixing rule
Unused restart file global fix info:
  fix style: npt, fix ID: 5
  update every 1 steps, delay 0 steps, check yes
Step          Temp          Press          PotEng        Density         KinEng         TotEng           Lx             Ly             Lz            Xlo            Xhi            Ylo            Yhi            Zlo            Zhi           Volume           Dt            Time           CPU           T/CPU          S/CPU         CPULeft
6060000   342.30349      1.1570714     -33090920       0.234505       1019.3213     -33089901       1417.2686      1417.2686      1417.2686      1291.3657      2708.6343      1291.3657      2708.6343      1291.3657      2708.6343      2.846797e+09   0.25           1560000        0              0              0              0
Loop time of 0.899234 on 4 procs for 20000 steps with 1000 atoms

unfix 2

fix 3 all nvt temp 370000 370000 $(100.0*dt) #iso 1.0 1.0 $(1000.0*dt)
fix 3 all nvt temp 370000 370000 25

run 100000
Generated 0 of 1 mixed pair_coeff terms from geometric mixing rule
Step          Temp          Press          PotEng        Density         KinEng         TotEng           Lx             Ly             Lz            Xlo            Xhi            Ylo            Yhi            Zlo            Zhi           Volume           Dt            Time           CPU           T/CPU          S/CPU         CPULeft
6080000   364913.8      -20.537837     -33218607       0.234505       1086651       -32131956       1417.2686      1417.2686      1417.2686      1291.3657      2708.6343      1291.3657      2708.6343      1291.3657      2708.6343      2.846797e+09   0.25           1565000        0              0              0              0
Averages over the last 11 of 21 rows, steps 6130000 to 6180000:
Temp Press PotEng Density KinEng TotEng Lx Ly Lz Xlo Xhi Ylo Yhi Zlo Zhi Volume Dt
371126 3.52166 -3.3315e+07 0.234505 1.10515e+06 -3.22099e+07 1417.27 1417.27 1417.27 1291.37 2708.63 1291.37 2708.63 1291.37 2708.63 2.8468e+09 0.25
Loop time of 4.57354 on 4 procs for 100000 steps with 1000 atoms

unfix 3

fix 4 all nvt temp 370000 300 100.0

run 20000
Generated 0 of 1 mixed pair_coeff terms from geometric mixing rule
Step          Temp          Press          PotEng        Density         KinEng         TotEng           Lx             Ly             Lz            Xlo            Xhi            Ylo            Yhi            Zlo            Zhi           Volume           Dt            Time           CPU           T/CPU          S/CPU         CPULeft
6180000   371094.57     -12.407105     -33046512       0.234505       1105056.3     -31941456       1417.2686      1417.2686      1417.2686      1291.3657      2708.6343      1291.3657      2708.6343      1291.3657      2708.6343      2.846797e+09   0.25           1590000        0              0              0              0
Loop time of 0.921253 on 4 procs for 20000 steps with 1000 atoms

unfix 4

fix 5 all npt temp 300 300 $(100.0*dt) iso 1.0 1.0 $(1000.0*dt)
fix 5 all npt temp 300 300 25 iso 1.0 1.0 $(1000.0*dt)
fix 5 all npt temp 300 300 25 iso 1.0 1.0 250

run 60000
Generated 0 of 1 mixed pair_coeff terms from geometric mixing rule
Step          Temp          Press          PotEng        Density         KinEng         TotEng           Lx             Ly             Lz            Xlo            Xhi            Ylo            Yhi            Zlo            Zhi           Volume           Dt            Time           CPU           T/CPU          S/CPU         CPULeft
6200000   9105.9802     -99.513282     -33225988       0.234505       27116.054     -33198872       1417.2686      1417.2686      1417.2686      1291.3657      2708.6343      1291.3657      2708.6343      1291.3657      2708.6343      2.846797e+09   0.25           1595000        0              0              0              0
Averages over the last 7 of 13 rows, steps 6230000 to 6260000:
Temp Press PotEng Density KinEng TotEng Lx Ly Lz Xlo Xhi Ylo Yhi Zlo Zhi Volume Dt
343.499 0.901948 -3.38108e+07 0.244179 1022.88 -3.38098e+07 1398.3 1398.3 1398.3 1300.85 2699.15 1300.85 2699.15 1300.85 2699.15 2.73402e+09 0.25
Loop time of 3.49403 on 4 procs for 60000 steps with 1000 atoms

# run_style
run_style verlet

# write restart
write_restart ./pgnpmf/19/equpmf31.res
System init for write_restart ...
Generated 0 of 1 mixed pair_coeff terms from geometric mixing rule
