LAMMPS (23 Jun 2022 - Update 1)
# Read restart
read_restart ./pgnpmf/19/equpmf86.res
Reading restart file ...
  restart file = 23 Jun 2022, LAMMPS = 23 Jun 2022
  restoring atom style atomic from restart
  orthogonal box = (1629.2326 1629.2326 1629.2326) to (2370.7674 2370.7674 2370.7674)
  restoring pair style table from restart
  1000 atoms
  read_restart CPU = 0.004 seconds

# Settings

pair_style table spline 9941

pair_coeff 1 1 ./pgnpmf/N20.txt DE_GNP 75.6
pair_coeff 2 2 ./pgnpmf/N100.txt DE_GNP 115.92
pair_coeff 1 2 ./pgnpmf/mixed_potential.txt DE_GNP 95.66

#Neigh_list Calc Frequency

neigh_modify delay 0 every 1 check yes

# Saving Frequency (50 frames)

variable ts_save equal 50000

variable nts equal 50000/0.1
variable medium equal 500000*3
variable long equal 500000*5

# Dump
#dump_modify 1 first no sort id
dump 2 all cfg 50000 ./pgnpmf/19/equilibration/trajectory/dumpequ.tens_*.cfg mass type xs ys zs fx fy fz
dump_modify 2 element N20 N100

# thermo_style
thermo_style custom step temp press pe density ke etotal lx ly lz xlo xhi ylo yhi zlo zhi vol dt time cpu tpcpu spcpu cpuremain

# run info
timestep 0.1
thermo 5000

# fix

fix 1 all momentum 1000 linear 1 1 1 angular
variable T equal 300
fix 2 all nvt temp 300 370000 100.0

run 500000
Generated 0 of 1 mixed pair_coeff terms from geometric mixing rule
Unused restart file global fix info:
  fix style: npt, fix ID: 5
  update every 1 steps, delay 0 steps, check yes
Step          Temp          Press          PotEng        Density         KinEng         TotEng           Lx             Ly             Lz            Xlo            Xhi            Ylo            Yhi            Zlo            Zhi           Volume           Dt            Time           CPU           T/CPU          S/CPU         CPULeft
89260000   288.06583     -7.5031105     -56415278       1.6372467      857.81084     -56414420       741.53473      741.53473      741.53473      1629.2326      2370.7674      1629.2326      2370.7674      1629.2326      2370.7674      4.0775049e+08  0.1            11110000       0              0              0              0
Averages over the last 51 of 101 rows, steps 89510000 to 89760000:
Temp Press PotEng Density KinEng TotEng Lx Ly Lz Xlo Xhi Ylo Yhi Zlo Zhi Volume Dt
277220 1575.83 -5.54102e+07 1.63725 825514 -5.45847e+07 741.535 741.535 741.535 1629.23 2370.77 1629.23 2370.77 1629.23 2370.77 4.0775e+08 0.1
Loop time of 35.8958 on 4 procs for 500000 steps with 1000 atoms

unfix 2

fix 3 all nvt temp 370000 370000 $(100.0*dt) #iso 1.0 1.0 $(1000.0*dt)
fix 3 all nvt temp 370000 370000 10

run 2500000
Generated 0 of 1 mixed pair_coeff terms from geometric mixing rule
Step          Temp          Press          PotEng        Density         KinEng         TotEng           Lx             Ly             Lz            Xlo            Xhi            Ylo            Yhi            Zlo            Zhi           Volume           Dt            Time           CPU           T/CPU          S/CPU         CPULeft
89760000   386481.92      2016.8893     -55122322       1.6372467      1150877.2     -53971445       741.53473      741.53473      741.53473      1629.2326      2370.7674      1629.2326      2370.7674      1629.2326      2370.7674      4.0775049e+08  0.1            11160000       0              0              0              0
Averages over the last 251 of 501 rows, steps 91010000 to 92260000:
Temp Press PotEng Density KinEng TotEng Lx Ly Lz Xlo Xhi Ylo Yhi Zlo Zhi Volume Dt
369786 1792.82 -5.52533e+07 1.63725 1.10116e+06 -5.41521e+07 741.535 741.535 741.535 1629.23 2370.77 1629.23 2370.77 1629.23 2370.77 4.0775e+08 0.1
Loop time of 180.247 on 4 procs for 2500000 steps with 1000 atoms

unfix 3

fix 4 all nvt temp 370000 300 100.0

run 500000
Generated 0 of 1 mixed pair_coeff terms from geometric mixing rule
Step          Temp          Press          PotEng        Density         KinEng         TotEng           Lx             Ly             Lz            Xlo            Xhi            Ylo            Yhi            Zlo            Zhi           Volume           Dt            Time           CPU           T/CPU          S/CPU         CPULeft
92260000   376818.96      1806.0047     -55252163       1.6372467      1122102.5     -54130061       741.53473      741.53473      741.53473      1629.2326      2370.7674      1629.2326      2370.7674      1629.2326      2370.7674      4.0775049e+08  0.1            11410000       0              0              0              0
Averages over the last 51 of 101 rows, steps 92510000 to 92760000:
Temp Press PotEng Density KinEng TotEng Lx Ly Lz Xlo Xhi Ylo Yhi Zlo Zhi Volume Dt
93568.4 381.083 -5.61064e+07 1.63725 278631 -5.58278e+07 741.535 741.535 741.535 1629.23 2370.77 1629.23 2370.77 1629.23 2370.77 4.0775e+08 0.1
Loop time of 35.7814 on 4 procs for 500000 steps with 1000 atoms

unfix 4

fix 5 all npt temp 300 300 $(100.0*dt) iso 1.0 1.0 $(1000.0*dt)
fix 5 all npt temp 300 300 10 iso 1.0 1.0 $(1000.0*dt)
fix 5 all npt temp 300 300 10 iso 1.0 1.0 100

run 1500000
Generated 0 of 1 mixed pair_coeff terms from geometric mixing rule
Step          Temp          Press          PotEng        Density         KinEng         TotEng           Lx             Ly             Lz            Xlo            Xhi            Ylo            Yhi            Zlo            Zhi           Volume           Dt            Time           CPU           T/CPU          S/CPU         CPULeft
92760000   1367.6828     -52.060502     -56392278       1.6372467      4072.7259     -56388205       741.53473      741.53473      741.53473      1629.2326      2370.7674      1629.2326      2370.7674      1629.2326      2370.7674      4.0775049e+08  0.1            11460000       0              0              0              0
Averages over the last 151 of 301 rows, steps 93510000 to 94260000:
Temp Press PotEng Density KinEng TotEng Lx Ly Lz Xlo Xhi Ylo Yhi Zlo Zhi Volume Dt
300.54 1.24447 -5.64649e+07 1.63973 894.956 -5.64641e+07 741.161 741.161 741.161 1629.42 2370.58 1629.42 2370.58 1629.42 2370.58 4.07134e+08 0.1
Loop time of 125.581 on 4 procs for 1500000 steps with 1000 atoms

# run_style
run_style verlet

# write restart
write_restart ./pgnpmf/19/equpmf87.res
System init for write_restart ...
Generated 0 of 1 mixed pair_coeff terms from geometric mixing rule
