LAMMPS (23 Jun 2022 - Update 1)
# Read restart
read_restart ./pgnpmf/19/equpmf20.res
Reading restart file ...
  restart file = 23 Jun 2022, LAMMPS = 23 Jun 2022
  restoring atom style atomic from restart
  orthogonal box = (1165.5149 1165.5149 1165.5149) to (2834.4851 2834.4851 2834.4851)
  restoring pair style table from restart
  1000 atoms
  read_restart CPU = 0.005 seconds

# Settings

pair_style table spline 9941

pair_coeff 1 1 ./pgnpmf/N20.txt DE_GNP 75.6
pair_coeff 2 2 ./pgnpmf/N100.txt DE_GNP 115.92
pair_coeff 1 2 ./pgnpmf/mixed_potential.txt DE_GNP 95.66

#Neigh_list Calc Frequency

neigh_modify delay 0 every 1 check yes

# Saving Frequency (50 frames)

variable ts_save equal 5000

variable nts equal 5000/0.25
variable medium equal 20000*3
variable long equal 20000*5

# Dump
#dump_modify 1 first no sort id
dump 2 all cfg 50000 ./pgnpmf/19/equilibration/trajectory/dumpequ.tens_*.cfg mass type xs ys zs fx fy fz
dump_modify 2 element N20 N100

# thermo_style
thermo_style custom step temp press pe density ke etotal lx ly lz xlo xhi ylo yhi zlo zhi vol dt time cpu tpcpu spcpu cpuremain

# run info
timestep 0.25
thermo 5000

# fix

fix 1 all momentum 1000 linear 1 1 1 angular
variable T equal 300
fix 2 all nvt temp 300 370000 100.0

run 20000
Generated 0 of 1 mixed pair_coeff terms from geometric mixing rule
Unused restart file global fix info:
  fix style: npt, fix ID: 5
  update every 1 steps, delay 0 steps, check yes
Step          Temp          Press          PotEng        Density         KinEng         TotEng           Lx             Ly             Lz            Xlo            Xhi            Ylo            Yhi            Zlo            Zhi           Volume           Dt            Time           CPU           T/CPU          S/CPU         CPULeft
4060000   339.06725      0.99555824    -22594962       0.1436028      1009.6844     -22593952       1668.9701      1668.9701      1668.9701      1165.5149      2834.4851      1165.5149      2834.4851      1165.5149      2834.4851      4.6488517e+09  0.25           1060000        0              0              0              0
Loop time of 0.756792 on 4 procs for 20000 steps with 1000 atoms

unfix 2

fix 3 all nvt temp 370000 370000 $(100.0*dt) #iso 1.0 1.0 $(1000.0*dt)
fix 3 all nvt temp 370000 370000 25

run 100000
Generated 0 of 1 mixed pair_coeff terms from geometric mixing rule
Step          Temp          Press          PotEng        Density         KinEng         TotEng           Lx             Ly             Lz            Xlo            Xhi            Ylo            Yhi            Zlo            Zhi           Volume           Dt            Time           CPU           T/CPU          S/CPU         CPULeft
4080000   366052.6      -1.6311309     -22635248       0.1436028      1090042.1     -21545205       1668.9701      1668.9701      1668.9701      1165.5149      2834.4851      1165.5149      2834.4851      1165.5149      2834.4851      4.6488517e+09  0.25           1065000        0              0              0              0
Averages over the last 11 of 21 rows, steps 4130000 to 4180000:
Temp Press PotEng Density KinEng TotEng Lx Ly Lz Xlo Xhi Ylo Yhi Zlo Zhi Volume Dt
370629 -0.809247 -2.31335e+07 0.143603 1.10367e+06 -2.20299e+07 1668.97 1668.97 1668.97 1165.51 2834.49 1165.51 2834.49 1165.51 2834.49 4.64885e+09 0.25
Loop time of 3.88791 on 4 procs for 100000 steps with 1000 atoms

unfix 3

fix 4 all nvt temp 370000 300 100.0

run 20000
Generated 0 of 1 mixed pair_coeff terms from geometric mixing rule
Step          Temp          Press          PotEng        Density         KinEng         TotEng           Lx             Ly             Lz            Xlo            Xhi            Ylo            Yhi            Zlo            Zhi           Volume           Dt            Time           CPU           T/CPU          S/CPU         CPULeft
4180000   373295.02     -5.463818      -23105540       0.1436028      1111608.8     -21993931       1668.9701      1668.9701      1668.9701      1165.5149      2834.4851      1165.5149      2834.4851      1165.5149      2834.4851      4.6488517e+09  0.25           1090000        0              0              0              0
Loop time of 0.779179 on 4 procs for 20000 steps with 1000 atoms

unfix 4

fix 5 all npt temp 300 300 $(100.0*dt) iso 1.0 1.0 $(1000.0*dt)
fix 5 all npt temp 300 300 25 iso 1.0 1.0 $(1000.0*dt)
fix 5 all npt temp 300 300 25 iso 1.0 1.0 250

run 60000
Generated 0 of 1 mixed pair_coeff terms from geometric mixing rule
Step          Temp          Press          PotEng        Density         KinEng         TotEng           Lx             Ly             Lz            Xlo            Xhi            Ylo            Yhi            Zlo            Zhi           Volume           Dt            Time           CPU           T/CPU          S/CPU         CPULeft
4200000   8785.0585     -48.832681     -23346510       0.1436028      26160.404     -23320349       1668.9701      1668.9701      1668.9701      1165.5149      2834.4851      1165.5149      2834.4851      1165.5149      2834.4851      4.6488517e+09  0.25           1095000        0              0              0              0
Averages over the last 7 of 13 rows, steps 4230000 to 4260000:
Temp Press PotEng Density KinEng TotEng Lx Ly Lz Xlo Xhi Ylo Yhi Zlo Zhi Volume Dt
344.663 1.05532 -2.407e+07 0.15209 1026.35 -2.4069e+07 1637.33 1637.33 1637.33 1181.33 2818.67 1181.33 2818.67 1181.33 2818.67 4.38949e+09 0.25
Loop time of 3.04878 on 4 procs for 60000 steps with 1000 atoms

# run_style
run_style verlet

# write restart
write_restart ./pgnpmf/19/equpmf21.res
System init for write_restart ...
Generated 0 of 1 mixed pair_coeff terms from geometric mixing rule
