LAMMPS (23 Jun 2022 - Update 1)
# Read restart
read_restart ./pgnpmf/19/equpmf98.res
Reading restart file ...
  restart file = 23 Jun 2022, LAMMPS = 23 Jun 2022
  restoring atom style atomic from restart
  orthogonal box = (1629.5321 1629.5321 1629.5321) to (2370.4679 2370.4679 2370.4679)
  restoring pair style table from restart
  1000 atoms
  read_restart CPU = 0.006 seconds

# Settings

pair_style table spline 9941

pair_coeff 1 1 ./pgnpmf/N20.txt DE_GNP 75.6
pair_coeff 2 2 ./pgnpmf/N100.txt DE_GNP 115.92
pair_coeff 1 2 ./pgnpmf/mixed_potential.txt DE_GNP 95.66

#Neigh_list Calc Frequency

neigh_modify delay 0 every 1 check yes

# Saving Frequency (50 frames)

variable ts_save equal 50000

variable nts equal 50000/0.1
variable medium equal 500000*3
variable long equal 500000*5

# Dump
#dump_modify 1 first no sort id
dump 2 all cfg 50000 ./pgnpmf/19/equilibration/trajectory/dumpequ.tens_*.cfg mass type xs ys zs fx fy fz
dump_modify 2 element N20 N100

# thermo_style
thermo_style custom step temp press pe density ke etotal lx ly lz xlo xhi ylo yhi zlo zhi vol dt time cpu tpcpu spcpu cpuremain

# run info
timestep 0.1
thermo 5000

# fix

fix 1 all momentum 1000 linear 1 1 1 angular
variable T equal 300
fix 2 all nvt temp 300 370000 100.0

run 500000
Generated 0 of 1 mixed pair_coeff terms from geometric mixing rule
Unused restart file global fix info:
  fix style: npt, fix ID: 5
  update every 1 steps, delay 0 steps, check yes
Step          Temp          Press          PotEng        Density         KinEng         TotEng           Lx             Ly             Lz            Xlo            Xhi            Ylo            Yhi            Zlo            Zhi           Volume           Dt            Time           CPU           T/CPU          S/CPU         CPULeft
149260000   308.56128      7.4896655     -56525473       1.6412196      918.84282     -56524554       740.9359       740.9359       740.9359       1629.5321      2370.4679      1629.5321      2370.4679      1629.5321      2370.4679      4.0676344e+08  0.1            17110000       0              0              0              0
Averages over the last 51 of 101 rows, steps 149510000 to 149760000:
Temp Press PotEng Density KinEng TotEng Lx Ly Lz Xlo Xhi Ylo Yhi Zlo Zhi Volume Dt
276886 1581.24 -5.56688e+07 1.64122 824520 -5.48443e+07 740.936 740.936 740.936 1629.53 2370.47 1629.53 2370.47 1629.53 2370.47 4.06763e+08 0.1
Loop time of 35.8987 on 4 procs for 500000 steps with 1000 atoms

unfix 2

fix 3 all nvt temp 370000 370000 $(100.0*dt) #iso 1.0 1.0 $(1000.0*dt)
fix 3 all nvt temp 370000 370000 10

run 2500000
Generated 0 of 1 mixed pair_coeff terms from geometric mixing rule
Step          Temp          Press          PotEng        Density         KinEng         TotEng           Lx             Ly             Lz            Xlo            Xhi            Ylo            Yhi            Zlo            Zhi           Volume           Dt            Time           CPU           T/CPU          S/CPU         CPULeft
149760000   357162.35      1930.7505     -55597929       1.6412196      1063568.5     -54534361       740.9359       740.9359       740.9359       1629.5321      2370.4679      1629.5321      2370.4679      1629.5321      2370.4679      4.0676344e+08  0.1            17160000       0              0              0              0
Averages over the last 251 of 501 rows, steps 151010000 to 152260000:
Temp Press PotEng Density KinEng TotEng Lx Ly Lz Xlo Xhi Ylo Yhi Zlo Zhi Volume Dt
368409 1860.09 -5.53209e+07 1.64122 1.09706e+06 -5.42238e+07 740.936 740.936 740.936 1629.53 2370.47 1629.53 2370.47 1629.53 2370.47 4.06763e+08 0.1
Loop time of 181.574 on 4 procs for 2500000 steps with 1000 atoms

unfix 3

fix 4 all nvt temp 370000 300 100.0

run 500000
Generated 0 of 1 mixed pair_coeff terms from geometric mixing rule
Step          Temp          Press          PotEng        Density         KinEng         TotEng           Lx             Ly             Lz            Xlo            Xhi            Ylo            Yhi            Zlo            Zhi           Volume           Dt            Time           CPU           T/CPU          S/CPU         CPULeft
152260000   369680.76      1873.461      -55250453       1.6412196      1100846.2     -54149607       740.9359       740.9359       740.9359       1629.5321      2370.4679      1629.5321      2370.4679      1629.5321      2370.4679      4.0676344e+08  0.1            17410000       0              0              0              0
Averages over the last 51 of 101 rows, steps 152510000 to 152760000:
Temp Press PotEng Density KinEng TotEng Lx Ly Lz Xlo Xhi Ylo Yhi Zlo Zhi Volume Dt
93100.7 481.348 -5.60167e+07 1.64122 277238 -5.57394e+07 740.936 740.936 740.936 1629.53 2370.47 1629.53 2370.47 1629.53 2370.47 4.06763e+08 0.1
Loop time of 35.8699 on 4 procs for 500000 steps with 1000 atoms

unfix 4

fix 5 all npt temp 300 300 $(100.0*dt) iso 1.0 1.0 $(1000.0*dt)
fix 5 all npt temp 300 300 10 iso 1.0 1.0 $(1000.0*dt)
fix 5 all npt temp 300 300 10 iso 1.0 1.0 100

run 1500000
Generated 0 of 1 mixed pair_coeff terms from geometric mixing rule
Step          Temp          Press          PotEng        Density         KinEng         TotEng           Lx             Ly             Lz            Xlo            Xhi            Ylo            Yhi            Zlo            Zhi           Volume           Dt            Time           CPU           T/CPU          S/CPU         CPULeft
152760000   1384.8097      65.6805       -56321157       1.6412196      4123.727      -56317033       740.9359       740.9359       740.9359       1629.5321      2370.4679      1629.5321      2370.4679      1629.5321      2370.4679      4.0676344e+08  0.1            17460000       0              0              0              0
Averages over the last 151 of 301 rows, steps 153510000 to 154260000:
Temp Press PotEng Density KinEng TotEng Lx Ly Lz Xlo Xhi Ylo Yhi Zlo Zhi Volume Dt
299.674 1.11826 -5.63553e+07 1.64046 892.377 -5.63544e+07 741.05 741.05 741.05 1629.47 2370.53 1629.47 2370.53 1629.47 2370.53 4.06952e+08 0.1
Loop time of 125.219 on 4 procs for 1500000 steps with 1000 atoms

# run_style
run_style verlet

# write restart
write_restart ./pgnpmf/19/equpmf99.res
System init for write_restart ...
Generated 0 of 1 mixed pair_coeff terms from geometric mixing rule
