LAMMPS (23 Jun 2022 - Update 1)
# Read restart
read_restart ./pgnpmf/19/equpmf49.res
Reading restart file ...
  restart file = 23 Jun 2022, LAMMPS = 23 Jun 2022
  restoring atom style atomic from restart
  orthogonal box = (1457.9475 1457.9475 1457.9475) to (2542.0525 2542.0525 2542.0525)
  restoring pair style table from restart
  1000 atoms
  read_restart CPU = 0.005 seconds

# Settings

pair_style table spline 9941

pair_coeff 1 1 ./pgnpmf/N20.txt DE_GNP 75.6
pair_coeff 2 2 ./pgnpmf/N100.txt DE_GNP 115.92
pair_coeff 1 2 ./pgnpmf/mixed_potential.txt DE_GNP 95.66

#Neigh_list Calc Frequency

neigh_modify delay 0 every 1 check yes

# Saving Frequency (50 frames)

variable ts_save equal 5000

variable nts equal 5000/0.25
variable medium equal 20000*3
variable long equal 20000*5

# Dump
#dump_modify 1 first no sort id
dump 2 all cfg 50000 ./pgnpmf/19/equilibration/trajectory/dumpequ.tens_*.cfg mass type xs ys zs fx fy fz
dump_modify 2 element N20 N100

# thermo_style
thermo_style custom step temp press pe density ke etotal lx ly lz xlo xhi ylo yhi zlo zhi vol dt time cpu tpcpu spcpu cpuremain

# run info
timestep 0.25
thermo 5000

# fix

fix 1 all momentum 1000 linear 1 1 1 angular
variable T equal 300
fix 2 all nvt temp 300 370000 100.0

run 20000
Generated 0 of 1 mixed pair_coeff terms from geometric mixing rule
Unused restart file global fix info:
  fix style: npt, fix ID: 5
  update every 1 steps, delay 0 steps, check yes
Step          Temp          Press          PotEng        Density         KinEng         TotEng           Lx             Ly             Lz            Xlo            Xhi            Ylo            Yhi            Zlo            Zhi           Volume           Dt            Time           CPU           T/CPU          S/CPU         CPULeft
9860000   342.75206      0.99984077    -38470580       0.52395568     1020.6571     -38469560       1084.105       1084.105       1084.105       1457.9475      2542.0525      1457.9475      2542.0525      1457.9475      2542.0525      1.2741309e+09  0.25           2510000        0              0              0              0
Loop time of 1.08803 on 4 procs for 20000 steps with 1000 atoms

unfix 2

fix 3 all nvt temp 370000 370000 $(100.0*dt) #iso 1.0 1.0 $(1000.0*dt)
fix 3 all nvt temp 370000 370000 25

run 100000
Generated 0 of 1 mixed pair_coeff terms from geometric mixing rule
Step          Temp          Press          PotEng        Density         KinEng         TotEng           Lx             Ly             Lz            Xlo            Xhi            Ylo            Yhi            Zlo            Zhi           Volume           Dt            Time           CPU           T/CPU          S/CPU         CPULeft
9880000   364584.95     -77.49965      -38534525       0.52395568     1085671.7     -37448853       1084.105       1084.105       1084.105       1457.9475      2542.0525      1457.9475      2542.0525      1457.9475      2542.0525      1.2741309e+09  0.25           2515000        0              0              0              0
Averages over the last 11 of 21 rows, steps 9930000 to 9980000:
Temp Press PotEng Density KinEng TotEng Lx Ly Lz Xlo Xhi Ylo Yhi Zlo Zhi Volume Dt
373839 18.3206 -3.84279e+07 0.523956 1.11323e+06 -3.73147e+07 1084.11 1084.11 1084.11 1457.95 2542.05 1457.95 2542.05 1457.95 2542.05 1.27413e+09 0.25
Loop time of 5.51046 on 4 procs for 100000 steps with 1000 atoms

unfix 3

fix 4 all nvt temp 370000 300 100.0

run 20000
Generated 0 of 1 mixed pair_coeff terms from geometric mixing rule
Step          Temp          Press          PotEng        Density         KinEng         TotEng           Lx             Ly             Lz            Xlo            Xhi            Ylo            Yhi            Zlo            Zhi           Volume           Dt            Time           CPU           T/CPU          S/CPU         CPULeft
9980000   369901.98      21.234844     -37917152       0.52395568     1101504.9     -36815647       1084.105       1084.105       1084.105       1457.9475      2542.0525      1457.9475      2542.0525      1457.9475      2542.0525      1.2741309e+09  0.25           2540000        0              0              0              0
Loop time of 1.1267 on 4 procs for 20000 steps with 1000 atoms

unfix 4

fix 5 all npt temp 300 300 $(100.0*dt) iso 1.0 1.0 $(1000.0*dt)
fix 5 all npt temp 300 300 25 iso 1.0 1.0 $(1000.0*dt)
fix 5 all npt temp 300 300 25 iso 1.0 1.0 250

run 60000
Generated 0 of 1 mixed pair_coeff terms from geometric mixing rule
Step          Temp          Press          PotEng        Density         KinEng         TotEng           Lx             Ly             Lz            Xlo            Xhi            Ylo            Yhi            Zlo            Zhi           Volume           Dt            Time           CPU           T/CPU          S/CPU         CPULeft
10000000   9216.4191     -249.13835     -38179743       0.52395568     27444.922     -38152298       1084.105       1084.105       1084.105       1457.9475      2542.0525      1457.9475      2542.0525      1457.9475      2542.0525      1.2741309e+09  0.25           2545000        0              0              0              0
Averages over the last 7 of 13 rows, steps 10030000 to 10060000:
Temp Press PotEng Density KinEng TotEng Lx Ly Lz Xlo Xhi Ylo Yhi Zlo Zhi Volume Dt
343.744 1.07511 -3.86956e+07 0.54309 1023.61 -3.86945e+07 1071.22 1071.22 1071.22 1464.39 2535.61 1464.39 2535.61 1464.39 2535.61 1.22924e+09 0.25
Loop time of 4.15987 on 4 procs for 60000 steps with 1000 atoms

# run_style
run_style verlet

# write restart
write_restart ./pgnpmf/19/equpmf50.res
System init for write_restart ...
Generated 0 of 1 mixed pair_coeff terms from geometric mixing rule
