LAMMPS (23 Jun 2022 - Update 1)
# Read restart
read_restart ./pgnpmf/19/equpmf16.res
Reading restart file ...
  restart file = 23 Jun 2022, LAMMPS = 23 Jun 2022
  restoring atom style atomic from restart
  orthogonal box = (1086.2761 1086.2761 1086.2761) to (2913.7239 2913.7239 2913.7239)
  restoring pair style table from restart
  1000 atoms
  read_restart CPU = 0.006 seconds

# Settings

pair_style table spline 9941

pair_coeff 1 1 ./pgnpmf/N20.txt DE_GNP 75.6
pair_coeff 2 2 ./pgnpmf/N100.txt DE_GNP 115.92
pair_coeff 1 2 ./pgnpmf/mixed_potential.txt DE_GNP 95.66

#Neigh_list Calc Frequency

neigh_modify delay 0 every 1 check yes

# Saving Frequency (50 frames)

variable ts_save equal 5000

variable nts equal 5000/0.25
variable medium equal 20000*3
variable long equal 20000*5

# Dump
#dump_modify 1 first no sort id
dump 2 all cfg 50000 ./pgnpmf/19/equilibration/trajectory/dumpequ.tens_*.cfg mass type xs ys zs fx fy fz
dump_modify 2 element N20 N100

# thermo_style
thermo_style custom step temp press pe density ke etotal lx ly lz xlo xhi ylo yhi zlo zhi vol dt time cpu tpcpu spcpu cpuremain

# run info
timestep 0.25
thermo 5000

# fix

fix 1 all momentum 1000 linear 1 1 1 angular
variable T equal 300
fix 2 all nvt temp 300 370000 100.0

run 20000
Generated 0 of 1 mixed pair_coeff terms from geometric mixing rule
Unused restart file global fix info:
  fix style: npt, fix ID: 5
  update every 1 steps, delay 0 steps, check yes
Step          Temp          Press          PotEng        Density         KinEng         TotEng           Lx             Ly             Lz            Xlo            Xhi            Ylo            Yhi            Zlo            Zhi           Volume           Dt            Time           CPU           T/CPU          S/CPU         CPULeft
3260000   338.45086      1.0809554     -14949785       0.10938901     1007.8489     -14948777       1827.4478      1827.4478      1827.4478      1086.2761      2913.7239      1086.2761      2913.7239      1086.2761      2913.7239      6.1028813e+09  0.25           860000         0              0              0              0
Loop time of 0.627403 on 4 procs for 20000 steps with 1000 atoms

unfix 2

fix 3 all nvt temp 370000 370000 $(100.0*dt) #iso 1.0 1.0 $(1000.0*dt)
fix 3 all nvt temp 370000 370000 25

run 100000
Generated 0 of 1 mixed pair_coeff terms from geometric mixing rule
Step          Temp          Press          PotEng        Density         KinEng         TotEng           Lx             Ly             Lz            Xlo            Xhi            Ylo            Yhi            Zlo            Zhi           Volume           Dt            Time           CPU           T/CPU          S/CPU         CPULeft
3280000   366915.73      3.9921082     -15071678       0.10938901     1092612.4     -13979066       1827.4478      1827.4478      1827.4478      1086.2761      2913.7239      1086.2761      2913.7239      1086.2761      2913.7239      6.1028813e+09  0.25           865000         0              0              0              0
Averages over the last 11 of 21 rows, steps 3330000 to 3380000:
Temp Press PotEng Density KinEng TotEng Lx Ly Lz Xlo Xhi Ylo Yhi Zlo Zhi Volume Dt
366458 3.38193 -1.56176e+07 0.109389 1.09125e+06 -1.45264e+07 1827.45 1827.45 1827.45 1086.28 2913.72 1086.28 2913.72 1086.28 2913.72 6.10288e+09 0.25
Loop time of 3.20093 on 4 procs for 100000 steps with 1000 atoms

unfix 3

fix 4 all nvt temp 370000 300 100.0

run 20000
Generated 0 of 1 mixed pair_coeff terms from geometric mixing rule
Step          Temp          Press          PotEng        Density         KinEng         TotEng           Lx             Ly             Lz            Xlo            Xhi            Ylo            Yhi            Zlo            Zhi           Volume           Dt            Time           CPU           T/CPU          S/CPU         CPULeft
3380000   368648.4       0.8995718     -15532736       0.10938901     1097772       -14434964       1827.4478      1827.4478      1827.4478      1086.2761      2913.7239      1086.2761      2913.7239      1086.2761      2913.7239      6.1028813e+09  0.25           890000         0              0              0              0
Loop time of 0.639111 on 4 procs for 20000 steps with 1000 atoms

unfix 4

fix 5 all npt temp 300 300 $(100.0*dt) iso 1.0 1.0 $(1000.0*dt)
fix 5 all npt temp 300 300 25 iso 1.0 1.0 $(1000.0*dt)
fix 5 all npt temp 300 300 25 iso 1.0 1.0 250

run 60000
Generated 0 of 1 mixed pair_coeff terms from geometric mixing rule
Step          Temp          Press          PotEng        Density         KinEng         TotEng           Lx             Ly             Lz            Xlo            Xhi            Ylo            Yhi            Zlo            Zhi           Volume           Dt            Time           CPU           T/CPU          S/CPU         CPULeft
3400000   8590.9282     -24.500639     -15660442       0.10938901     25582.317     -15634860       1827.4478      1827.4478      1827.4478      1086.2761      2913.7239      1086.2761      2913.7239      1086.2761      2913.7239      6.1028813e+09  0.25           895000         0              0              0              0
Averages over the last 7 of 13 rows, steps 3430000 to 3460000:
Temp Press PotEng Density KinEng TotEng Lx Ly Lz Xlo Xhi Ylo Yhi Zlo Zhi Volume Dt
341.622 0.971212 -1.62517e+07 0.116964 1017.29 -1.62507e+07 1787.12 1787.12 1787.12 1106.44 2893.56 1106.44 2893.56 1106.44 2893.56 5.7078e+09 0.25
Loop time of 2.6253 on 4 procs for 60000 steps with 1000 atoms

# run_style
run_style verlet

# write restart
write_restart ./pgnpmf/19/equpmf17.res
System init for write_restart ...
Generated 0 of 1 mixed pair_coeff terms from geometric mixing rule
