LAMMPS (23 Jun 2022 - Update 1)
# Read restart
read_restart ./pgnpmf/19/equpmf66.res
Reading restart file ...
  restart file = 23 Jun 2022, LAMMPS = 23 Jun 2022
  restoring atom style atomic from restart
  orthogonal box = (1561.6322 1561.6322 1561.6322) to (2438.3678 2438.3678 2438.3678)
  restoring pair style table from restart
  1000 atoms
  read_restart CPU = 0.005 seconds

# Settings

pair_style table spline 9941

pair_coeff 1 1 ./pgnpmf/N20.txt DE_GNP 75.6
pair_coeff 2 2 ./pgnpmf/N100.txt DE_GNP 115.92
pair_coeff 1 2 ./pgnpmf/mixed_potential.txt DE_GNP 95.66

#Neigh_list Calc Frequency

neigh_modify delay 0 every 1 check yes

# Saving Frequency (50 frames)

variable ts_save equal 5000

variable nts equal 5000/0.25
variable medium equal 20000*3
variable long equal 20000*5

# Dump
#dump_modify 1 first no sort id
dump 2 all cfg 50000 ./pgnpmf/19/equilibration/trajectory/dumpequ.tens_*.cfg mass type xs ys zs fx fy fz
dump_modify 2 element N20 N100

# thermo_style
thermo_style custom step temp press pe density ke etotal lx ly lz xlo xhi ylo yhi zlo zhi vol dt time cpu tpcpu spcpu cpuremain

# run info
timestep 0.25
thermo 5000

# fix

fix 1 all momentum 1000 linear 1 1 1 angular
variable T equal 300
fix 2 all nvt temp 300 370000 100.0

run 20000
Generated 0 of 1 mixed pair_coeff terms from geometric mixing rule
Unused restart file global fix info:
  fix style: npt, fix ID: 5
  update every 1 steps, delay 0 steps, check yes
Step          Temp          Press          PotEng        Density         KinEng         TotEng           Lx             Ly             Lz            Xlo            Xhi            Ylo            Yhi            Zlo            Zhi           Volume           Dt            Time           CPU           T/CPU          S/CPU         CPULeft
13260000   343.57428      2.2376744     -45138323       0.99060995     1023.1055     -45137300       876.73559      876.73559      876.73559      1561.6322      2438.3678      1561.6322      2438.3678      1561.6322      2438.3678      6.7391623e+08  0.25           3360000        0              0              0              0
Loop time of 1.29389 on 4 procs for 20000 steps with 1000 atoms

unfix 2

fix 3 all nvt temp 370000 370000 $(100.0*dt) #iso 1.0 1.0 $(1000.0*dt)
fix 3 all nvt temp 370000 370000 25

run 100000
Generated 0 of 1 mixed pair_coeff terms from geometric mixing rule
Step          Temp          Press          PotEng        Density         KinEng         TotEng           Lx             Ly             Lz            Xlo            Xhi            Ylo            Yhi            Zlo            Zhi           Volume           Dt            Time           CPU           T/CPU          S/CPU         CPULeft
13280000   365469.49     -19.105522     -45134111       0.99060995     1088305.7     -44045805       876.73559      876.73559      876.73559      1561.6322      2438.3678      1561.6322      2438.3678      1561.6322      2438.3678      6.7391623e+08  0.25           3365000        0              0              0              0
Averages over the last 11 of 21 rows, steps 13330000 to 13380000:
Temp Press PotEng Density KinEng TotEng Lx Ly Lz Xlo Xhi Ylo Yhi Zlo Zhi Volume Dt
366192 54.9901 -4.46935e+07 0.99061 1.09046e+06 -4.3603e+07 876.736 876.736 876.736 1561.63 2438.37 1561.63 2438.37 1561.63 2438.37 6.73916e+08 0.25
Loop time of 6.5429 on 4 procs for 100000 steps with 1000 atoms

unfix 3

fix 4 all nvt temp 370000 300 100.0

run 20000
Generated 0 of 1 mixed pair_coeff terms from geometric mixing rule
Step          Temp          Press          PotEng        Density         KinEng         TotEng           Lx             Ly             Lz            Xlo            Xhi            Ylo            Yhi            Zlo            Zhi           Volume           Dt            Time           CPU           T/CPU          S/CPU         CPULeft
13380000   374544.48     -57.096959     -44478150       0.99060995     1115329.5     -43362820       876.73559      876.73559      876.73559      1561.6322      2438.3678      1561.6322      2438.3678      1561.6322      2438.3678      6.7391623e+08  0.25           3390000        0              0              0              0
Loop time of 1.30662 on 4 procs for 20000 steps with 1000 atoms

unfix 4

fix 5 all npt temp 300 300 $(100.0*dt) iso 1.0 1.0 $(1000.0*dt)
fix 5 all npt temp 300 300 25 iso 1.0 1.0 $(1000.0*dt)
fix 5 all npt temp 300 300 25 iso 1.0 1.0 250

run 60000
Generated 0 of 1 mixed pair_coeff terms from geometric mixing rule
Step          Temp          Press          PotEng        Density         KinEng         TotEng           Lx             Ly             Lz            Xlo            Xhi            Ylo            Yhi            Zlo            Zhi           Volume           Dt            Time           CPU           T/CPU          S/CPU         CPULeft
13400000   9368.0344     -516.32185     -44722603       0.99060995     27896.407     -44694707       876.73559      876.73559      876.73559      1561.6322      2438.3678      1561.6322      2438.3678      1561.6322      2438.3678      6.7391623e+08  0.25           3395000        0              0              0              0
Averages over the last 7 of 13 rows, steps 13430000 to 13460000:
Temp Press PotEng Density KinEng TotEng Lx Ly Lz Xlo Xhi Ylo Yhi Zlo Zhi Volume Dt
344.363 1.40635 -4.5324e+07 1.02414 1025.45 -4.5323e+07 867.062 867.062 867.062 1566.47 2433.53 1566.47 2433.53 1566.47 2433.53 6.51855e+08 0.25
Loop time of 4.69629 on 4 procs for 60000 steps with 1000 atoms

# run_style
run_style verlet

# write restart
write_restart ./pgnpmf/19/equpmf67.res
System init for write_restart ...
Generated 0 of 1 mixed pair_coeff terms from geometric mixing rule
