LAMMPS (23 Jun 2022 - Update 1)
# Read restart
read_restart ./pgnpmf/19/equpmf69.res
Reading restart file ...
  restart file = 23 Jun 2022, LAMMPS = 23 Jun 2022
  restoring atom style atomic from restart
  orthogonal box = (1576.1279 1576.1279 1576.1279) to (2423.8721 2423.8721 2423.8721)
  restoring pair style table from restart
  1000 atoms
  read_restart CPU = 0.005 seconds

# Settings

pair_style table spline 9941

pair_coeff 1 1 ./pgnpmf/N20.txt DE_GNP 75.6
pair_coeff 2 2 ./pgnpmf/N100.txt DE_GNP 115.92
pair_coeff 1 2 ./pgnpmf/mixed_potential.txt DE_GNP 95.66

#Neigh_list Calc Frequency

neigh_modify delay 0 every 1 check yes

# Saving Frequency (50 frames)

variable ts_save equal 5000

variable nts equal 5000/0.25
variable medium equal 20000*3
variable long equal 20000*5

# Dump
#dump_modify 1 first no sort id
dump 2 all cfg 50000 ./pgnpmf/19/equilibration/trajectory/dumpequ.tens_*.cfg mass type xs ys zs fx fy fz
dump_modify 2 element N20 N100

# thermo_style
thermo_style custom step temp press pe density ke etotal lx ly lz xlo xhi ylo yhi zlo zhi vol dt time cpu tpcpu spcpu cpuremain

# run info
timestep 0.25
thermo 5000

# fix

fix 1 all momentum 1000 linear 1 1 1 angular
variable T equal 300
fix 2 all nvt temp 300 370000 100.0

run 20000
Generated 0 of 1 mixed pair_coeff terms from geometric mixing rule
Unused restart file global fix info:
  fix style: npt, fix ID: 5
  update every 1 steps, delay 0 steps, check yes
Step          Temp          Press          PotEng        Density         KinEng         TotEng           Lx             Ly             Lz            Xlo            Xhi            Ylo            Yhi            Zlo            Zhi           Volume           Dt            Time           CPU           T/CPU          S/CPU         CPULeft
13860000   340.87576      1.4650302     -46306231       1.0957566      1015.0698     -46305216       847.74421      847.74421      847.74421      1576.1279      2423.8721      1576.1279      2423.8721      1576.1279      2423.8721      6.0924854e+08  0.25           3510000        0              0              0              0
Loop time of 1.31825 on 4 procs for 20000 steps with 1000 atoms

unfix 2

fix 3 all nvt temp 370000 370000 $(100.0*dt) #iso 1.0 1.0 $(1000.0*dt)
fix 3 all nvt temp 370000 370000 25

run 100000
Generated 0 of 1 mixed pair_coeff terms from geometric mixing rule
Step          Temp          Press          PotEng        Density         KinEng         TotEng           Lx             Ly             Lz            Xlo            Xhi            Ylo            Yhi            Zlo            Zhi           Volume           Dt            Time           CPU           T/CPU          S/CPU         CPULeft
13880000   365463.69      20.248073     -46462276       1.0957566      1088288.5     -45373988       847.74421      847.74421      847.74421      1576.1279      2423.8721      1576.1279      2423.8721      1576.1279      2423.8721      6.0924854e+08  0.25           3515000        0              0              0              0
Averages over the last 11 of 21 rows, steps 13930000 to 13980000:
Temp Press PotEng Density KinEng TotEng Lx Ly Lz Xlo Xhi Ylo Yhi Zlo Zhi Volume Dt
372225 133.45 -4.58272e+07 1.09576 1.10842e+06 -4.47188e+07 847.744 847.744 847.744 1576.13 2423.87 1576.13 2423.87 1576.13 2423.87 6.09249e+08 0.25
Loop time of 6.69584 on 4 procs for 100000 steps with 1000 atoms

unfix 3

fix 4 all nvt temp 370000 300 100.0

run 20000
Generated 0 of 1 mixed pair_coeff terms from geometric mixing rule
Step          Temp          Press          PotEng        Density         KinEng         TotEng           Lx             Ly             Lz            Xlo            Xhi            Ylo            Yhi            Zlo            Zhi           Volume           Dt            Time           CPU           T/CPU          S/CPU         CPULeft
13980000   374190.27      39.029738     -45598881       1.0957566      1114274.7     -44484606       847.74421      847.74421      847.74421      1576.1279      2423.8721      1576.1279      2423.8721      1576.1279      2423.8721      6.0924854e+08  0.25           3540000        0              0              0              0
Loop time of 1.3146 on 4 procs for 20000 steps with 1000 atoms

unfix 4

fix 5 all npt temp 300 300 $(100.0*dt) iso 1.0 1.0 $(1000.0*dt)
fix 5 all npt temp 300 300 25 iso 1.0 1.0 $(1000.0*dt)
fix 5 all npt temp 300 300 25 iso 1.0 1.0 250

run 60000
Generated 0 of 1 mixed pair_coeff terms from geometric mixing rule
Step          Temp          Press          PotEng        Density         KinEng         TotEng           Lx             Ly             Lz            Xlo            Xhi            Ylo            Yhi            Zlo            Zhi           Volume           Dt            Time           CPU           T/CPU          S/CPU         CPULeft
14000000   9331.5154     -535.06799     -45817367       1.0957566      27787.659     -45789579       847.74421      847.74421      847.74421      1576.1279      2423.8721      1576.1279      2423.8721      1576.1279      2423.8721      6.0924854e+08  0.25           3545000        0              0              0              0
Averages over the last 7 of 13 rows, steps 14030000 to 14060000:
Temp Press PotEng Density KinEng TotEng Lx Ly Lz Xlo Xhi Ylo Yhi Zlo Zhi Volume Dt
343.113 0.394833 -4.65588e+07 1.12918 1021.73 -4.65577e+07 839.296 839.296 839.296 1580.35 2419.65 1580.35 2419.65 1580.35 2419.65 5.91216e+08 0.25
Loop time of 4.70017 on 4 procs for 60000 steps with 1000 atoms

# run_style
run_style verlet

# write restart
write_restart ./pgnpmf/19/equpmf70.res
System init for write_restart ...
Generated 0 of 1 mixed pair_coeff terms from geometric mixing rule
