LAMMPS (23 Jun 2022 - Update 1)
# Read restart
read_restart ./pgnpmf/19/equpmf45.res
Reading restart file ...
  restart file = 23 Jun 2022, LAMMPS = 23 Jun 2022
  restoring atom style atomic from restart
  orthogonal box = (1427.4029 1427.4029 1427.4029) to (2572.5971 2572.5971 2572.5971)
  restoring pair style table from restart
  1000 atoms
  read_restart CPU = 0.005 seconds

# Settings

pair_style table spline 9941

pair_coeff 1 1 ./pgnpmf/N20.txt DE_GNP 75.6
pair_coeff 2 2 ./pgnpmf/N100.txt DE_GNP 115.92
pair_coeff 1 2 ./pgnpmf/mixed_potential.txt DE_GNP 95.66

#Neigh_list Calc Frequency

neigh_modify delay 0 every 1 check yes

# Saving Frequency (50 frames)

variable ts_save equal 5000

variable nts equal 5000/0.25
variable medium equal 20000*3
variable long equal 20000*5

# Dump
#dump_modify 1 first no sort id
dump 2 all cfg 50000 ./pgnpmf/19/equilibration/trajectory/dumpequ.tens_*.cfg mass type xs ys zs fx fy fz
dump_modify 2 element N20 N100

# thermo_style
thermo_style custom step temp press pe density ke etotal lx ly lz xlo xhi ylo yhi zlo zhi vol dt time cpu tpcpu spcpu cpuremain

# run info
timestep 0.25
thermo 5000

# fix

fix 1 all momentum 1000 linear 1 1 1 angular
variable T equal 300
fix 2 all nvt temp 300 370000 100.0

run 20000
Generated 0 of 1 mixed pair_coeff terms from geometric mixing rule
Unused restart file global fix info:
  fix style: npt, fix ID: 5
  update every 1 steps, delay 0 steps, check yes
Step          Temp          Press          PotEng        Density         KinEng         TotEng           Lx             Ly             Lz            Xlo            Xhi            Ylo            Yhi            Zlo            Zhi           Volume           Dt            Time           CPU           T/CPU          S/CPU         CPULeft
9060000   343.26541      1.6542258     -37734264       0.44449948     1022.1858     -37733242       1145.1941      1145.1941      1145.1941      1427.4029      2572.5971      1427.4029      2572.5971      1427.4029      2572.5971      1.5018873e+09  0.25           2310000        0              0              0              0
Loop time of 1.04822 on 4 procs for 20000 steps with 1000 atoms

unfix 2

fix 3 all nvt temp 370000 370000 $(100.0*dt) #iso 1.0 1.0 $(1000.0*dt)
fix 3 all nvt temp 370000 370000 25

run 100000
Generated 0 of 1 mixed pair_coeff terms from geometric mixing rule
Step          Temp          Press          PotEng        Density         KinEng         TotEng           Lx             Ly             Lz            Xlo            Xhi            Ylo            Yhi            Zlo            Zhi           Volume           Dt            Time           CPU           T/CPU          S/CPU         CPULeft
9080000   364417.12     -59.782013     -38017669       0.44449948     1085172       -36932497       1145.1941      1145.1941      1145.1941      1427.4029      2572.5971      1427.4029      2572.5971      1427.4029      2572.5971      1.5018873e+09  0.25           2315000        0              0              0              0
Averages over the last 11 of 21 rows, steps 9130000 to 9180000:
Temp Press PotEng Density KinEng TotEng Lx Ly Lz Xlo Xhi Ylo Yhi Zlo Zhi Volume Dt
375428 -4.30386 -3.75653e+07 0.444499 1.11796e+06 -3.64473e+07 1145.19 1145.19 1145.19 1427.4 2572.6 1427.4 2572.6 1427.4 2572.6 1.50189e+09 0.25
Loop time of 5.2917 on 4 procs for 100000 steps with 1000 atoms

unfix 3

fix 4 all nvt temp 370000 300 100.0

run 20000
Generated 0 of 1 mixed pair_coeff terms from geometric mixing rule
Step          Temp          Press          PotEng        Density         KinEng         TotEng           Lx             Ly             Lz            Xlo            Xhi            Ylo            Yhi            Zlo            Zhi           Volume           Dt            Time           CPU           T/CPU          S/CPU         CPULeft
9180000   381672.58     -30.818341     -37013691       0.44449948     1136555.8     -35877135       1145.1941      1145.1941      1145.1941      1427.4029      2572.5971      1427.4029      2572.5971      1427.4029      2572.5971      1.5018873e+09  0.25           2340000        0              0              0              0
Loop time of 1.07722 on 4 procs for 20000 steps with 1000 atoms

unfix 4

fix 5 all npt temp 300 300 $(100.0*dt) iso 1.0 1.0 $(1000.0*dt)
fix 5 all npt temp 300 300 25 iso 1.0 1.0 $(1000.0*dt)
fix 5 all npt temp 300 300 25 iso 1.0 1.0 250

run 60000
Generated 0 of 1 mixed pair_coeff terms from geometric mixing rule
Step          Temp          Press          PotEng        Density         KinEng         TotEng           Lx             Ly             Lz            Xlo            Xhi            Ylo            Yhi            Zlo            Zhi           Volume           Dt            Time           CPU           T/CPU          S/CPU         CPULeft
9200000   9163.3917     -211.85027     -37097298       0.44449948     27287.016     -37070011       1145.1941      1145.1941      1145.1941      1427.4029      2572.5971      1427.4029      2572.5971      1427.4029      2572.5971      1.5018873e+09  0.25           2345000        0              0              0              0
Averages over the last 7 of 13 rows, steps 9230000 to 9260000:
Temp Press PotEng Density KinEng TotEng Lx Ly Lz Xlo Xhi Ylo Yhi Zlo Zhi Volume Dt
345.636 1.21966 -3.76764e+07 0.462236 1029.25 -3.76753e+07 1130.36 1130.36 1130.36 1434.82 2565.18 1434.82 2565.18 1434.82 2565.18 1.44427e+09 0.25
Loop time of 3.99609 on 4 procs for 60000 steps with 1000 atoms

# run_style
run_style verlet

# write restart
write_restart ./pgnpmf/19/equpmf46.res
System init for write_restart ...
Generated 0 of 1 mixed pair_coeff terms from geometric mixing rule
