LAMMPS (23 Jun 2022 - Update 1)
# Read restart
read_restart ./pgnpmf/19/equpmf95.res
Reading restart file ...
  restart file = 23 Jun 2022, LAMMPS = 23 Jun 2022
  restoring atom style atomic from restart
  orthogonal box = (1629.5564 1629.5564 1629.5564) to (2370.4436 2370.4436 2370.4436)
  restoring pair style table from restart
  1000 atoms
  read_restart CPU = 0.006 seconds

# Settings

pair_style table spline 9941

pair_coeff 1 1 ./pgnpmf/N20.txt DE_GNP 75.6
pair_coeff 2 2 ./pgnpmf/N100.txt DE_GNP 115.92
pair_coeff 1 2 ./pgnpmf/mixed_potential.txt DE_GNP 95.66

#Neigh_list Calc Frequency

neigh_modify delay 0 every 1 check yes

# Saving Frequency (50 frames)

variable ts_save equal 50000

variable nts equal 50000/0.1
variable medium equal 500000*3
variable long equal 500000*5

# Dump
#dump_modify 1 first no sort id
dump 2 all cfg 50000 ./pgnpmf/19/equilibration/trajectory/dumpequ.tens_*.cfg mass type xs ys zs fx fy fz
dump_modify 2 element N20 N100

# thermo_style
thermo_style custom step temp press pe density ke etotal lx ly lz xlo xhi ylo yhi zlo zhi vol dt time cpu tpcpu spcpu cpuremain

# run info
timestep 0.1
thermo 5000

# fix

fix 1 all momentum 1000 linear 1 1 1 angular
variable T equal 300
fix 2 all nvt temp 300 370000 100.0

run 500000
Generated 0 of 1 mixed pair_coeff terms from geometric mixing rule
Unused restart file global fix info:
  fix style: npt, fix ID: 5
  update every 1 steps, delay 0 steps, check yes
Step          Temp          Press          PotEng        Density         KinEng         TotEng           Lx             Ly             Lz            Xlo            Xhi            Ylo            Yhi            Zlo            Zhi           Volume           Dt            Time           CPU           T/CPU          S/CPU         CPULeft
134260000   308.92742     -5.7465588     -56282376       1.6415436      919.93311     -56281456       740.88714      740.88714      740.88714      1629.5564      2370.4436      1629.5564      2370.4436      1629.5564      2370.4436      4.0668315e+08  0.1            15610000       0              0              0              0
Averages over the last 51 of 101 rows, steps 134510000 to 134760000:
Temp Press PotEng Density KinEng TotEng Lx Ly Lz Xlo Xhi Ylo Yhi Zlo Zhi Volume Dt
277285 1561.77 -5.55227e+07 1.64154 825707 -5.4697e+07 740.887 740.887 740.887 1629.56 2370.44 1629.56 2370.44 1629.56 2370.44 4.06683e+08 0.1
Loop time of 35.6628 on 4 procs for 500000 steps with 1000 atoms

unfix 2

fix 3 all nvt temp 370000 370000 $(100.0*dt) #iso 1.0 1.0 $(1000.0*dt)
fix 3 all nvt temp 370000 370000 10

run 2500000
Generated 0 of 1 mixed pair_coeff terms from geometric mixing rule
Step          Temp          Press          PotEng        Density         KinEng         TotEng           Lx             Ly             Lz            Xlo            Xhi            Ylo            Yhi            Zlo            Zhi           Volume           Dt            Time           CPU           T/CPU          S/CPU         CPULeft
134760000   364976.41      1951.4288     -55196014       1.6415436      1086837.4     -54109176       740.88714      740.88714      740.88714      1629.5564      2370.4436      1629.5564      2370.4436      1629.5564      2370.4436      4.0668315e+08  0.1            15660000       0              0              0              0
Averages over the last 251 of 501 rows, steps 136010000 to 137260000:
Temp Press PotEng Density KinEng TotEng Lx Ly Lz Xlo Xhi Ylo Yhi Zlo Zhi Volume Dt
369689 1862.68 -5.53083e+07 1.64154 1.10087e+06 -5.42074e+07 740.887 740.887 740.887 1629.56 2370.44 1629.56 2370.44 1629.56 2370.44 4.06683e+08 0.1
Loop time of 192.954 on 4 procs for 2500000 steps with 1000 atoms

unfix 3

fix 4 all nvt temp 370000 300 100.0

run 500000
Generated 0 of 1 mixed pair_coeff terms from geometric mixing rule
Step          Temp          Press          PotEng        Density         KinEng         TotEng           Lx             Ly             Lz            Xlo            Xhi            Ylo            Yhi            Zlo            Zhi           Volume           Dt            Time           CPU           T/CPU          S/CPU         CPULeft
137260000   371306.31      1930.8478     -55282634       1.6415436      1105686.8     -54176947       740.88714      740.88714      740.88714      1629.5564      2370.4436      1629.5564      2370.4436      1629.5564      2370.4436      4.0668315e+08  0.1            15910000       0              0              0              0
Averages over the last 51 of 101 rows, steps 137510000 to 137760000:
Temp Press PotEng Density KinEng TotEng Lx Ly Lz Xlo Xhi Ylo Yhi Zlo Zhi Volume Dt
93393.8 490.927 -5.60806e+07 1.64154 278111 -5.58025e+07 740.887 740.887 740.887 1629.56 2370.44 1629.56 2370.44 1629.56 2370.44 4.06683e+08 0.1
Loop time of 36.0137 on 4 procs for 500000 steps with 1000 atoms

unfix 4

fix 5 all npt temp 300 300 $(100.0*dt) iso 1.0 1.0 $(1000.0*dt)
fix 5 all npt temp 300 300 10 iso 1.0 1.0 $(1000.0*dt)
fix 5 all npt temp 300 300 10 iso 1.0 1.0 100

run 1500000
Generated 0 of 1 mixed pair_coeff terms from geometric mixing rule
Step          Temp          Press          PotEng        Density         KinEng         TotEng           Lx             Ly             Lz            Xlo            Xhi            Ylo            Yhi            Zlo            Zhi           Volume           Dt            Time           CPU           T/CPU          S/CPU         CPULeft
137760000   1380.0163      26.563799     -56305126       1.6415436      4109.4528     -56301017       740.88714      740.88714      740.88714      1629.5564      2370.4436      1629.5564      2370.4436      1629.5564      2370.4436      4.0668315e+08  0.1            15960000       0              0              0              0
Averages over the last 151 of 301 rows, steps 138510000 to 139260000:
Temp Press PotEng Density KinEng TotEng Lx Ly Lz Xlo Xhi Ylo Yhi Zlo Zhi Volume Dt
299.778 1.39662 -5.63941e+07 1.64129 892.687 -5.63932e+07 740.925 740.925 740.925 1629.54 2370.46 1629.54 2370.46 1629.54 2370.46 4.06746e+08 0.1
Loop time of 125.694 on 4 procs for 1500000 steps with 1000 atoms

# run_style
run_style verlet

# write restart
write_restart ./pgnpmf/19/equpmf96.res
System init for write_restart ...
Generated 0 of 1 mixed pair_coeff terms from geometric mixing rule
