LAMMPS (23 Jun 2022 - Update 1)
# Read restart
read_restart ./pgnpmf/19/equpmf88.res
Reading restart file ...
  restart file = 23 Jun 2022, LAMMPS = 23 Jun 2022
  restoring atom style atomic from restart
  orthogonal box = (1629.4493 1629.4493 1629.4493) to (2370.5507 2370.5507 2370.5507)
  restoring pair style table from restart
  1000 atoms
  read_restart CPU = 0.004 seconds

# Settings

pair_style table spline 9941

pair_coeff 1 1 ./pgnpmf/N20.txt DE_GNP 75.6
pair_coeff 2 2 ./pgnpmf/N100.txt DE_GNP 115.92
pair_coeff 1 2 ./pgnpmf/mixed_potential.txt DE_GNP 95.66

#Neigh_list Calc Frequency

neigh_modify delay 0 every 1 check yes

# Saving Frequency (50 frames)

variable ts_save equal 50000

variable nts equal 50000/0.1
variable medium equal 500000*3
variable long equal 500000*5

# Dump
#dump_modify 1 first no sort id
dump 2 all cfg 50000 ./pgnpmf/19/equilibration/trajectory/dumpequ.tens_*.cfg mass type xs ys zs fx fy fz
dump_modify 2 element N20 N100

# thermo_style
thermo_style custom step temp press pe density ke etotal lx ly lz xlo xhi ylo yhi zlo zhi vol dt time cpu tpcpu spcpu cpuremain

# run info
timestep 0.1
thermo 5000

# fix

fix 1 all momentum 1000 linear 1 1 1 angular
variable T equal 300
fix 2 all nvt temp 300 370000 100.0

run 500000
Generated 0 of 1 mixed pair_coeff terms from geometric mixing rule
Unused restart file global fix info:
  fix style: npt, fix ID: 5
  update every 1 steps, delay 0 steps, check yes
Step          Temp          Press          PotEng        Density         KinEng         TotEng           Lx             Ly             Lz            Xlo            Xhi            Ylo            Yhi            Zlo            Zhi           Volume           Dt            Time           CPU           T/CPU          S/CPU         CPULeft
99260000   300.52759      10.194857     -56471302       1.6401198      894.91985     -56470407       741.10148      741.10148      741.10148      1629.4493      2370.5507      1629.4493      2370.5507      1629.4493      2370.5507      4.070362e+08   0.1            12110000       0              0              0              0
Averages over the last 51 of 101 rows, steps 99510000 to 99760000:
Temp Press PotEng Density KinEng TotEng Lx Ly Lz Xlo Xhi Ylo Yhi Zlo Zhi Volume Dt
277869 1595.96 -5.55588e+07 1.64012 827446 -5.47314e+07 741.101 741.101 741.101 1629.45 2370.55 1629.45 2370.55 1629.45 2370.55 4.07036e+08 0.1
Loop time of 35.3418 on 4 procs for 500000 steps with 1000 atoms

unfix 2

fix 3 all nvt temp 370000 370000 $(100.0*dt) #iso 1.0 1.0 $(1000.0*dt)
fix 3 all nvt temp 370000 370000 10

run 2500000
Generated 0 of 1 mixed pair_coeff terms from geometric mixing rule
Step          Temp          Press          PotEng        Density         KinEng         TotEng           Lx             Ly             Lz            Xlo            Xhi            Ylo            Yhi            Zlo            Zhi           Volume           Dt            Time           CPU           T/CPU          S/CPU         CPULeft
99760000   367045.98      2059.5789     -55340064       1.6401198      1093000.2     -54247064       741.10148      741.10148      741.10148      1629.4493      2370.5507      1629.4493      2370.5507      1629.4493      2370.5507      4.070362e+08   0.1            12160000       0              0              0              0
Averages over the last 251 of 501 rows, steps 101010000 to 102260000:
Temp Press PotEng Density KinEng TotEng Lx Ly Lz Xlo Xhi Ylo Yhi Zlo Zhi Volume Dt
369663 1853.56 -5.53094e+07 1.64012 1.10079e+06 -5.42087e+07 741.101 741.101 741.101 1629.45 2370.55 1629.45 2370.55 1629.45 2370.55 4.07036e+08 0.1
Loop time of 178.456 on 4 procs for 2500000 steps with 1000 atoms

unfix 3

fix 4 all nvt temp 370000 300 100.0

run 500000
Generated 0 of 1 mixed pair_coeff terms from geometric mixing rule
Step          Temp          Press          PotEng        Density         KinEng         TotEng           Lx             Ly             Lz            Xlo            Xhi            Ylo            Yhi            Zlo            Zhi           Volume           Dt            Time           CPU           T/CPU          S/CPU         CPULeft
102260000   372972.3       1742.4239     -55421089       1.6401198      1110647.8     -54310441       741.10148      741.10148      741.10148      1629.4493      2370.5507      1629.4493      2370.5507      1629.4493      2370.5507      4.070362e+08   0.1            12410000       0              0              0              0
Averages over the last 51 of 101 rows, steps 102510000 to 102760000:
Temp Press PotEng Density KinEng TotEng Lx Ly Lz Xlo Xhi Ylo Yhi Zlo Zhi Volume Dt
93142.9 482.536 -5.60868e+07 1.64012 277364 -5.58094e+07 741.101 741.101 741.101 1629.45 2370.55 1629.45 2370.55 1629.45 2370.55 4.07036e+08 0.1
Loop time of 35.4266 on 4 procs for 500000 steps with 1000 atoms

unfix 4

fix 5 all npt temp 300 300 $(100.0*dt) iso 1.0 1.0 $(1000.0*dt)
fix 5 all npt temp 300 300 10 iso 1.0 1.0 $(1000.0*dt)
fix 5 all npt temp 300 300 10 iso 1.0 1.0 100

run 1500000
Generated 0 of 1 mixed pair_coeff terms from geometric mixing rule
Step          Temp          Press          PotEng        Density         KinEng         TotEng           Lx             Ly             Lz            Xlo            Xhi            Ylo            Yhi            Zlo            Zhi           Volume           Dt            Time           CPU           T/CPU          S/CPU         CPULeft
102760000   1388.7875      63.770027     -56297293       1.6401198      4135.572      -56293158       741.10148      741.10148      741.10148      1629.4493      2370.5507      1629.4493      2370.5507      1629.4493      2370.5507      4.070362e+08   0.1            12460000       0              0              0              0
Averages over the last 151 of 301 rows, steps 103510000 to 104260000:
Temp Press PotEng Density KinEng TotEng Lx Ly Lz Xlo Xhi Ylo Yhi Zlo Zhi Volume Dt
299.497 1.0769 -5.64348e+07 1.63936 891.85 -5.64339e+07 741.217 741.217 741.217 1629.39 2370.61 1629.39 2370.61 1629.39 2370.61 4.07226e+08 0.1
Loop time of 126.018 on 4 procs for 1500000 steps with 1000 atoms

# run_style
run_style verlet

# write restart
write_restart ./pgnpmf/19/equpmf89.res
System init for write_restart ...
Generated 0 of 1 mixed pair_coeff terms from geometric mixing rule
