LAMMPS (23 Jun 2022 - Update 1)
# Read restart
read_restart ./pgnpmf/19/equpmf82.res
Reading restart file ...
  restart file = 23 Jun 2022, LAMMPS = 23 Jun 2022
  restoring atom style atomic from restart
  orthogonal box = (1629.172 1629.172 1629.172) to (2370.828 2370.828 2370.828)
  restoring pair style table from restart
  1000 atoms
  read_restart CPU = 0.005 seconds

# Settings

pair_style table spline 9941

pair_coeff 1 1 ./pgnpmf/N20.txt DE_GNP 75.6
pair_coeff 2 2 ./pgnpmf/N100.txt DE_GNP 115.92
pair_coeff 1 2 ./pgnpmf/mixed_potential.txt DE_GNP 95.66

#Neigh_list Calc Frequency

neigh_modify delay 0 every 1 check yes

# Saving Frequency (50 frames)

variable ts_save equal 50000

variable nts equal 50000/0.1
variable medium equal 500000*3
variable long equal 500000*5

# Dump
#dump_modify 1 first no sort id
dump 2 all cfg 50000 ./pgnpmf/19/equilibration/trajectory/dumpequ.tens_*.cfg mass type xs ys zs fx fy fz
dump_modify 2 element N20 N100

# thermo_style
thermo_style custom step temp press pe density ke etotal lx ly lz xlo xhi ylo yhi zlo zhi vol dt time cpu tpcpu spcpu cpuremain

# run info
timestep 0.1
thermo 5000

# fix

fix 1 all momentum 1000 linear 1 1 1 angular
variable T equal 300
fix 2 all nvt temp 300 370000 100.0

run 500000
Generated 0 of 1 mixed pair_coeff terms from geometric mixing rule
Unused restart file global fix info:
  fix style: npt, fix ID: 5
  update every 1 steps, delay 0 steps, check yes
Step          Temp          Press          PotEng        Density         KinEng         TotEng           Lx             Ly             Lz            Xlo            Xhi            Ylo            Yhi            Zlo            Zhi           Volume           Dt            Time           CPU           T/CPU          S/CPU         CPULeft
69260000   299.10411      0.44939074    -56340624       1.6364431      890.68097     -56339734       741.65608      741.65608      741.65608      1629.172       2370.828       1629.172       2370.828       1629.172       2370.828       4.079507e+08   0.1            9110000        0              0              0              0
Averages over the last 51 of 101 rows, steps 69510000 to 69760000:
Temp Press PotEng Density KinEng TotEng Lx Ly Lz Xlo Xhi Ylo Yhi Zlo Zhi Volume Dt
278646 1577.81 -5.55153e+07 1.63644 829760 -5.46855e+07 741.656 741.656 741.656 1629.17 2370.83 1629.17 2370.83 1629.17 2370.83 4.07951e+08 0.1
Loop time of 35.9238 on 4 procs for 500000 steps with 1000 atoms

unfix 2

fix 3 all nvt temp 370000 370000 $(100.0*dt) #iso 1.0 1.0 $(1000.0*dt)
fix 3 all nvt temp 370000 370000 10

run 2500000
Generated 0 of 1 mixed pair_coeff terms from geometric mixing rule
Step          Temp          Press          PotEng        Density         KinEng         TotEng           Lx             Ly             Lz            Xlo            Xhi            Ylo            Yhi            Zlo            Zhi           Volume           Dt            Time           CPU           T/CPU          S/CPU         CPULeft
69760000   359844.03      1966.2957     -55334398       1.6364431      1071554.1     -54262844       741.65608      741.65608      741.65608      1629.172       2370.828       1629.172       2370.828       1629.172       2370.828       4.079507e+08   0.1            9160000        0              0              0              0
Averages over the last 251 of 501 rows, steps 71010000 to 72260000:
Temp Press PotEng Density KinEng TotEng Lx Ly Lz Xlo Xhi Ylo Yhi Zlo Zhi Volume Dt
370936 1800.2 -5.51837e+07 1.63644 1.10458e+06 -5.40791e+07 741.656 741.656 741.656 1629.17 2370.83 1629.17 2370.83 1629.17 2370.83 4.07951e+08 0.1
Loop time of 181.441 on 4 procs for 2500000 steps with 1000 atoms

unfix 3

fix 4 all nvt temp 370000 300 100.0

run 500000
Generated 0 of 1 mixed pair_coeff terms from geometric mixing rule
Step          Temp          Press          PotEng        Density         KinEng         TotEng           Lx             Ly             Lz            Xlo            Xhi            Ylo            Yhi            Zlo            Zhi           Volume           Dt            Time           CPU           T/CPU          S/CPU         CPULeft
72260000   383354.75      1825.7754     -55256176       1.6364431      1141565       -54114611       741.65608      741.65608      741.65608      1629.172       2370.828       1629.172       2370.828       1629.172       2370.828       4.079507e+08   0.1            9410000        0              0              0              0
Averages over the last 51 of 101 rows, steps 72510000 to 72760000:
Temp Press PotEng Density KinEng TotEng Lx Ly Lz Xlo Xhi Ylo Yhi Zlo Zhi Volume Dt
93001 405.814 -5.59932e+07 1.63644 276941 -5.57162e+07 741.656 741.656 741.656 1629.17 2370.83 1629.17 2370.83 1629.17 2370.83 4.07951e+08 0.1
Loop time of 35.8098 on 4 procs for 500000 steps with 1000 atoms

unfix 4

fix 5 all npt temp 300 300 $(100.0*dt) iso 1.0 1.0 $(1000.0*dt)
fix 5 all npt temp 300 300 10 iso 1.0 1.0 $(1000.0*dt)
fix 5 all npt temp 300 300 10 iso 1.0 1.0 100

run 1500000
Generated 0 of 1 mixed pair_coeff terms from geometric mixing rule
Step          Temp          Press          PotEng        Density         KinEng         TotEng           Lx             Ly             Lz            Xlo            Xhi            Ylo            Yhi            Zlo            Zhi           Volume           Dt            Time           CPU           T/CPU          S/CPU         CPULeft
72760000   1381.9173     -24.567437     -56224002       1.6364431      4115.1136     -56219887       741.65608      741.65608      741.65608      1629.172       2370.828       1629.172       2370.828       1629.172       2370.828       4.079507e+08   0.1            9460000        0              0              0              0
Averages over the last 151 of 301 rows, steps 73510000 to 74260000:
Temp Press PotEng Density KinEng TotEng Lx Ly Lz Xlo Xhi Ylo Yhi Zlo Zhi Volume Dt
300.363 0.752323 -5.62931e+07 1.63738 894.431 -5.62922e+07 741.514 741.514 741.514 1629.24 2370.76 1629.24 2370.76 1629.24 2370.76 4.07717e+08 0.1
Loop time of 125.343 on 4 procs for 1500000 steps with 1000 atoms

# run_style
run_style verlet

# write restart
write_restart ./pgnpmf/19/equpmf83.res
System init for write_restart ...
Generated 0 of 1 mixed pair_coeff terms from geometric mixing rule
