LAMMPS (23 Jun 2022 - Update 1)
# Read restart
read_restart ./pgnpmf/19/equpmf11.res
Reading restart file ...
  restart file = 23 Jun 2022, LAMMPS = 23 Jun 2022
  restoring atom style atomic from restart
  orthogonal box = (930.21719 930.21719 930.21719) to (3069.7828 3069.7828 3069.7828)
  restoring pair style table from restart
  1000 atoms
  read_restart CPU = 0.003 seconds

# Settings

pair_style table spline 9941

pair_coeff 1 1 ./pgnpmf/N20.txt DE_GNP 75.6
pair_coeff 2 2 ./pgnpmf/N100.txt DE_GNP 115.92
pair_coeff 1 2 ./pgnpmf/mixed_potential.txt DE_GNP 95.66

#Neigh_list Calc Frequency

neigh_modify delay 0 every 1 check yes

# Saving Frequency (50 frames)

variable ts_save equal 5000

variable nts equal 5000/0.25
variable medium equal 20000*3
variable long equal 20000*5

# Dump
#dump_modify 1 first no sort id
dump 2 all cfg 50000 ./pgnpmf/19/equilibration/trajectory/dumpequ.tens_*.cfg mass type xs ys zs fx fy fz
dump_modify 2 element N20 N100

# thermo_style
thermo_style custom step temp press pe density ke etotal lx ly lz xlo xhi ylo yhi zlo zhi vol dt time cpu tpcpu spcpu cpuremain

# run info
timestep 0.25
thermo 5000

# fix

fix 1 all momentum 1000 linear 1 1 1 angular
variable T equal 300
fix 2 all nvt temp 300 370000 100.0

run 20000
Generated 0 of 1 mixed pair_coeff terms from geometric mixing rule
Unused restart file global fix info:
  fix style: npt, fix ID: 5
  update every 1 steps, delay 0 steps, check yes
Step          Temp          Press          PotEng        Density         KinEng         TotEng           Lx             Ly             Lz            Xlo            Xhi            Ylo            Yhi            Zlo            Zhi           Volume           Dt            Time           CPU           T/CPU          S/CPU         CPULeft
2260000   333.99536      1.0760132     -9134601.5      0.068160342    994.58115     -9133606.9      2139.5656      2139.5656      2139.5656      930.21719      3069.7828      930.21719      3069.7828      930.21719      3069.7828      9.7943775e+09  0.25           610000         0              0              0              0
Loop time of 0.522451 on 4 procs for 20000 steps with 1000 atoms

unfix 2

fix 3 all nvt temp 370000 370000 $(100.0*dt) #iso 1.0 1.0 $(1000.0*dt)
fix 3 all nvt temp 370000 370000 25

run 100000
Generated 0 of 1 mixed pair_coeff terms from geometric mixing rule
Step          Temp          Press          PotEng        Density         KinEng         TotEng           Lx             Ly             Lz            Xlo            Xhi            Ylo            Yhi            Zlo            Zhi           Volume           Dt            Time           CPU           T/CPU          S/CPU         CPULeft
2280000   369304.79      4.8589453     -9317942.6      0.068160342    1099726.6     -8218216        2139.5656      2139.5656      2139.5656      930.21719      3069.7828      930.21719      3069.7828      930.21719      3069.7828      9.7943775e+09  0.25           615000         0              0              0              0
Averages over the last 11 of 21 rows, steps 2330000 to 2380000:
Temp Press PotEng Density KinEng TotEng Lx Ly Lz Xlo Xhi Ylo Yhi Zlo Zhi Volume Dt
375349 5.74761 -9.37072e+06 0.0681603 1.11773e+06 -8.253e+06 2139.57 2139.57 2139.57 930.217 3069.78 930.217 3069.78 930.217 3069.78 9.79438e+09 0.25
Loop time of 2.6588 on 4 procs for 100000 steps with 1000 atoms

unfix 3

fix 4 all nvt temp 370000 300 100.0

run 20000
Generated 0 of 1 mixed pair_coeff terms from geometric mixing rule
Step          Temp          Press          PotEng        Density         KinEng         TotEng           Lx             Ly             Lz            Xlo            Xhi            Ylo            Yhi            Zlo            Zhi           Volume           Dt            Time           CPU           T/CPU          S/CPU         CPULeft
2380000   377956.21      2.0636216     -9350647.1      0.068160342    1125489.1     -8225158.1      2139.5656      2139.5656      2139.5656      930.21719      3069.7828      930.21719      3069.7828      930.21719      3069.7828      9.7943775e+09  0.25           640000         0              0              0              0
Loop time of 0.524383 on 4 procs for 20000 steps with 1000 atoms

unfix 4

fix 5 all npt temp 300 300 $(100.0*dt) iso 1.0 1.0 $(1000.0*dt)
fix 5 all npt temp 300 300 25 iso 1.0 1.0 $(1000.0*dt)
fix 5 all npt temp 300 300 25 iso 1.0 1.0 250

run 60000
Generated 0 of 1 mixed pair_coeff terms from geometric mixing rule
Step          Temp          Press          PotEng        Density         KinEng         TotEng           Lx             Ly             Lz            Xlo            Xhi            Ylo            Yhi            Zlo            Zhi           Volume           Dt            Time           CPU           T/CPU          S/CPU         CPULeft
2400000   8362.0105     -10.195413     -9449444.7      0.068160342    24900.639     -9424544.1      2139.5656      2139.5656      2139.5656      930.21719      3069.7828      930.21719      3069.7828      930.21719      3069.7828      9.7943775e+09  0.25           645000         0              0              0              0
Averages over the last 7 of 13 rows, steps 2430000 to 2460000:
Temp Press PotEng Density KinEng TotEng Lx Ly Lz Xlo Xhi Ylo Yhi Zlo Zhi Volume Dt
338.583 1.00464 -1.02001e+07 0.0750138 1008.24 -1.01991e+07 2072.35 2072.35 2072.35 963.827 3036.17 963.827 3036.17 963.827 3036.17 8.90013e+09 0.25
Loop time of 2.28394 on 4 procs for 60000 steps with 1000 atoms

# run_style
run_style verlet

# write restart
write_restart ./pgnpmf/19/equpmf12.res
System init for write_restart ...
Generated 0 of 1 mixed pair_coeff terms from geometric mixing rule
