LAMMPS (23 Jun 2022 - Update 1)
# Read restart
read_restart ./pgnpmf/19/equpmf78.res
Reading restart file ...
  restart file = 23 Jun 2022, LAMMPS = 23 Jun 2022
  restoring atom style atomic from restart
  orthogonal box = (1628.9614 1628.9614 1628.9614) to (2371.0386 2371.0386 2371.0386)
  restoring pair style table from restart
  1000 atoms
  read_restart CPU = 0.004 seconds

# Settings

pair_style table spline 9941

pair_coeff 1 1 ./pgnpmf/N20.txt DE_GNP 75.6
pair_coeff 2 2 ./pgnpmf/N100.txt DE_GNP 115.92
pair_coeff 1 2 ./pgnpmf/mixed_potential.txt DE_GNP 95.66

#Neigh_list Calc Frequency

neigh_modify delay 0 every 1 check yes

# Saving Frequency (50 frames)

variable ts_save equal 50000

variable nts equal 50000/0.1
variable medium equal 500000*3
variable long equal 500000*5

# Dump
#dump_modify 1 first no sort id
dump 2 all cfg 50000 ./pgnpmf/19/equilibration/trajectory/dumpequ.tens_*.cfg mass type xs ys zs fx fy fz
dump_modify 2 element N20 N100

# thermo_style
thermo_style custom step temp press pe density ke etotal lx ly lz xlo xhi ylo yhi zlo zhi vol dt time cpu tpcpu spcpu cpuremain

# run info
timestep 0.1
thermo 5000

# fix

fix 1 all momentum 1000 linear 1 1 1 angular
variable T equal 300
fix 2 all nvt temp 300 370000 100.0

run 500000
Generated 0 of 1 mixed pair_coeff terms from geometric mixing rule
Unused restart file global fix info:
  fix style: npt, fix ID: 5
  update every 1 steps, delay 0 steps, check yes
Step          Temp          Press          PotEng        Density         KinEng         TotEng           Lx             Ly             Lz            Xlo            Xhi            Ylo            Yhi            Zlo            Zhi           Volume           Dt            Time           CPU           T/CPU          S/CPU         CPULeft
49260000   296.31265     -2.35173       -56310528       1.6336585      882.36846     -56309645       742.07724      742.07724      742.07724      1628.9614      2371.0386      1628.9614      2371.0386      1628.9614      2371.0386      4.0864608e+08  0.1            7110000        0              0              0              0
Averages over the last 51 of 101 rows, steps 49510000 to 49760000:
Temp Press PotEng Density KinEng TotEng Lx Ly Lz Xlo Xhi Ylo Yhi Zlo Zhi Volume Dt
278174 1534.55 -5.54584e+07 1.63366 828355 -5.463e+07 742.077 742.077 742.077 1628.96 2371.04 1628.96 2371.04 1628.96 2371.04 4.08646e+08 0.1
Loop time of 36.2045 on 4 procs for 500000 steps with 1000 atoms

unfix 2

fix 3 all nvt temp 370000 370000 $(100.0*dt) #iso 1.0 1.0 $(1000.0*dt)
fix 3 all nvt temp 370000 370000 10

run 2500000
Generated 0 of 1 mixed pair_coeff terms from geometric mixing rule
Step          Temp          Press          PotEng        Density         KinEng         TotEng           Lx             Ly             Lz            Xlo            Xhi            Ylo            Yhi            Zlo            Zhi           Volume           Dt            Time           CPU           T/CPU          S/CPU         CPULeft
49760000   376212.68      1941.5188     -55254688       1.6336585      1120297.1     -54134391       742.07724      742.07724      742.07724      1628.9614      2371.0386      1628.9614      2371.0386      1628.9614      2371.0386      4.0864608e+08  0.1            7160000        0              0              0              0
Averages over the last 251 of 501 rows, steps 51010000 to 52260000:
Temp Press PotEng Density KinEng TotEng Lx Ly Lz Xlo Xhi Ylo Yhi Zlo Zhi Volume Dt
369847 1767.99 -5.51786e+07 1.63366 1.10134e+06 -5.40772e+07 742.077 742.077 742.077 1628.96 2371.04 1628.96 2371.04 1628.96 2371.04 4.08646e+08 0.1
Loop time of 178.837 on 4 procs for 2500000 steps with 1000 atoms

unfix 3

fix 4 all nvt temp 370000 300 100.0

run 500000
Generated 0 of 1 mixed pair_coeff terms from geometric mixing rule
Step          Temp          Press          PotEng        Density         KinEng         TotEng           Lx             Ly             Lz            Xlo            Xhi            Ylo            Yhi            Zlo            Zhi           Volume           Dt            Time           CPU           T/CPU          S/CPU         CPULeft
52260000   391355.39      1693.6302     -55278089       1.6336585      1165389.5     -54112700       742.07724      742.07724      742.07724      1628.9614      2371.0386      1628.9614      2371.0386      1628.9614      2371.0386      4.0864608e+08  0.1            7410000        0              0              0              0
Averages over the last 51 of 101 rows, steps 52510000 to 52760000:
Temp Press PotEng Density KinEng TotEng Lx Ly Lz Xlo Xhi Ylo Yhi Zlo Zhi Volume Dt
92872.2 371.961 -5.5962e+07 1.63366 276558 -5.56854e+07 742.077 742.077 742.077 1628.96 2371.04 1628.96 2371.04 1628.96 2371.04 4.08646e+08 0.1
Loop time of 35.3375 on 4 procs for 500000 steps with 1000 atoms

unfix 4

fix 5 all npt temp 300 300 $(100.0*dt) iso 1.0 1.0 $(1000.0*dt)
fix 5 all npt temp 300 300 10 iso 1.0 1.0 $(1000.0*dt)
fix 5 all npt temp 300 300 10 iso 1.0 1.0 100

run 1500000
Generated 0 of 1 mixed pair_coeff terms from geometric mixing rule
Step          Temp          Press          PotEng        Density         KinEng         TotEng           Lx             Ly             Lz            Xlo            Xhi            Ylo            Yhi            Zlo            Zhi           Volume           Dt            Time           CPU           T/CPU          S/CPU         CPULeft
52760000   1373.5853     -41.016026     -56101582       1.6336585      4090.3026     -56097491       742.07724      742.07724      742.07724      1628.9614      2371.0386      1628.9614      2371.0386      1628.9614      2371.0386      4.0864608e+08  0.1            7460000        0              0              0              0
Averages over the last 151 of 301 rows, steps 53510000 to 54260000:
Temp Press PotEng Density KinEng TotEng Lx Ly Lz Xlo Xhi Ylo Yhi Zlo Zhi Volume Dt
299.956 1.01717 -5.63798e+07 1.63674 893.218 -5.63789e+07 741.611 741.611 741.611 1629.19 2370.81 1629.19 2370.81 1629.19 2370.81 4.07877e+08 0.1
Loop time of 123.592 on 4 procs for 1500000 steps with 1000 atoms

# run_style
run_style verlet

# write restart
write_restart ./pgnpmf/19/equpmf79.res
System init for write_restart ...
Generated 0 of 1 mixed pair_coeff terms from geometric mixing rule
