LAMMPS (23 Jun 2022 - Update 1)
# Read restart
read_restart ./pgnpmf/19/equpmf92.res
Reading restart file ...
  restart file = 23 Jun 2022, LAMMPS = 23 Jun 2022
  restoring atom style atomic from restart
  orthogonal box = (1629.5015 1629.5015 1629.5015) to (2370.4985 2370.4985 2370.4985)
  restoring pair style table from restart
  1000 atoms
  read_restart CPU = 0.006 seconds

# Settings

pair_style table spline 9941

pair_coeff 1 1 ./pgnpmf/N20.txt DE_GNP 75.6
pair_coeff 2 2 ./pgnpmf/N100.txt DE_GNP 115.92
pair_coeff 1 2 ./pgnpmf/mixed_potential.txt DE_GNP 95.66

#Neigh_list Calc Frequency

neigh_modify delay 0 every 1 check yes

# Saving Frequency (50 frames)

variable ts_save equal 50000

variable nts equal 50000/0.1
variable medium equal 500000*3
variable long equal 500000*5

# Dump
#dump_modify 1 first no sort id
dump 2 all cfg 50000 ./pgnpmf/19/equilibration/trajectory/dumpequ.tens_*.cfg mass type xs ys zs fx fy fz
dump_modify 2 element N20 N100

# thermo_style
thermo_style custom step temp press pe density ke etotal lx ly lz xlo xhi ylo yhi zlo zhi vol dt time cpu tpcpu spcpu cpuremain

# run info
timestep 0.1
thermo 5000

# fix

fix 1 all momentum 1000 linear 1 1 1 angular
variable T equal 300
fix 2 all nvt temp 300 370000 100.0

run 500000
Generated 0 of 1 mixed pair_coeff terms from geometric mixing rule
Unused restart file global fix info:
  fix style: npt, fix ID: 5
  update every 1 steps, delay 0 steps, check yes
Step          Temp          Press          PotEng        Density         KinEng         TotEng           Lx             Ly             Lz            Xlo            Xhi            Ylo            Yhi            Zlo            Zhi           Volume           Dt            Time           CPU           T/CPU          S/CPU         CPULeft
119260000   312.45185     -2.9884011     -56473879       1.6408133      930.42826     -56472949       740.99705      740.99705      740.99705      1629.5015      2370.4985      1629.5015      2370.4985      1629.5015      2370.4985      4.0686416e+08  0.1            14110000       0              0              0              0
Averages over the last 51 of 101 rows, steps 119510000 to 119760000:
Temp Press PotEng Density KinEng TotEng Lx Ly Lz Xlo Xhi Ylo Yhi Zlo Zhi Volume Dt
277506 1536.88 -5.56999e+07 1.64081 826366 -5.48735e+07 740.997 740.997 740.997 1629.5 2370.5 1629.5 2370.5 1629.5 2370.5 4.06864e+08 0.1
Loop time of 35.7222 on 4 procs for 500000 steps with 1000 atoms

unfix 2

fix 3 all nvt temp 370000 370000 $(100.0*dt) #iso 1.0 1.0 $(1000.0*dt)
fix 3 all nvt temp 370000 370000 10

run 2500000
Generated 0 of 1 mixed pair_coeff terms from geometric mixing rule
Step          Temp          Press          PotEng        Density         KinEng         TotEng           Lx             Ly             Lz            Xlo            Xhi            Ylo            Yhi            Zlo            Zhi           Volume           Dt            Time           CPU           T/CPU          S/CPU         CPULeft
119760000   390337.46      1882.7631     -55535832       1.6408133      1162358.3     -54373474       740.99705      740.99705      740.99705      1629.5015      2370.4985      1629.5015      2370.4985      1629.5015      2370.4985      4.0686416e+08  0.1            14160000       0              0              0              0
Averages over the last 251 of 501 rows, steps 121010000 to 122260000:
Temp Press PotEng Density KinEng TotEng Lx Ly Lz Xlo Xhi Ylo Yhi Zlo Zhi Volume Dt
370367 1843.43 -5.52482e+07 1.64081 1.10289e+06 -5.41453e+07 740.997 740.997 740.997 1629.5 2370.5 1629.5 2370.5 1629.5 2370.5 4.06864e+08 0.1
Loop time of 180.378 on 4 procs for 2500000 steps with 1000 atoms

unfix 3

fix 4 all nvt temp 370000 300 100.0

run 500000
Generated 0 of 1 mixed pair_coeff terms from geometric mixing rule
Step          Temp          Press          PotEng        Density         KinEng         TotEng           Lx             Ly             Lz            Xlo            Xhi            Ylo            Yhi            Zlo            Zhi           Volume           Dt            Time           CPU           T/CPU          S/CPU         CPULeft
122260000   369617.36      1746.9766     -55179715       1.6408133      1100657.4     -54079057       740.99705      740.99705      740.99705      1629.5015      2370.4985      1629.5015      2370.4985      1629.5015      2370.4985      4.0686416e+08  0.1            14410000       0              0              0              0
Averages over the last 51 of 101 rows, steps 122510000 to 122760000:
Temp Press PotEng Density KinEng TotEng Lx Ly Lz Xlo Xhi Ylo Yhi Zlo Zhi Volume Dt
92961 444.405 -5.61704e+07 1.64081 276822 -5.58935e+07 740.997 740.997 740.997 1629.5 2370.5 1629.5 2370.5 1629.5 2370.5 4.06864e+08 0.1
Loop time of 35.3315 on 4 procs for 500000 steps with 1000 atoms

unfix 4

fix 5 all npt temp 300 300 $(100.0*dt) iso 1.0 1.0 $(1000.0*dt)
fix 5 all npt temp 300 300 10 iso 1.0 1.0 $(1000.0*dt)
fix 5 all npt temp 300 300 10 iso 1.0 1.0 100

run 1500000
Generated 0 of 1 mixed pair_coeff terms from geometric mixing rule
Step          Temp          Press          PotEng        Density         KinEng         TotEng           Lx             Ly             Lz            Xlo            Xhi            Ylo            Yhi            Zlo            Zhi           Volume           Dt            Time           CPU           T/CPU          S/CPU         CPULeft
122760000   1375.626       23.020644     -56460453       1.6408133      4096.3792     -56456357       740.99705      740.99705      740.99705      1629.5015      2370.4985      1629.5015      2370.4985      1629.5015      2370.4985      4.0686416e+08  0.1            14460000       0              0              0              0
Averages over the last 151 of 301 rows, steps 123510000 to 124260000:
Temp Press PotEng Density KinEng TotEng Lx Ly Lz Xlo Xhi Ylo Yhi Zlo Zhi Volume Dt
301.531 0.909045 -5.65498e+07 1.6413 897.909 -5.65489e+07 740.924 740.924 740.924 1629.54 2370.46 1629.54 2370.46 1629.54 2370.46 4.06743e+08 0.1
Loop time of 124.605 on 4 procs for 1500000 steps with 1000 atoms

# run_style
run_style verlet

# write restart
write_restart ./pgnpmf/19/equpmf93.res
System init for write_restart ...
Generated 0 of 1 mixed pair_coeff terms from geometric mixing rule
