LAMMPS (23 Jun 2022 - Update 1)
# Read restart
read_restart ./pgnpmf/19/equpmf71.res
Reading restart file ...
  restart file = 23 Jun 2022, LAMMPS = 23 Jun 2022
  restoring atom style atomic from restart
  orthogonal box = (1584.4217 1584.4217 1584.4217) to (2415.5783 2415.5783 2415.5783)
  restoring pair style table from restart
  1000 atoms
  read_restart CPU = 0.019 seconds

# Settings

pair_style table spline 9941

pair_coeff 1 1 ./pgnpmf/N20.txt DE_GNP 75.6
pair_coeff 2 2 ./pgnpmf/N100.txt DE_GNP 115.92
pair_coeff 1 2 ./pgnpmf/mixed_potential.txt DE_GNP 95.66

#Neigh_list Calc Frequency

neigh_modify delay 0 every 1 check yes

# Saving Frequency (50 frames)

variable ts_save equal 50000

variable nts equal 50000/0.1
variable medium equal 500000*3
variable long equal 500000*5

# Dump
#dump_modify 1 first no sort id
dump 2 all cfg 50000 ./pgnpmf/19/equilibration/trajectory/dumpequ.tens_*.cfg mass type xs ys zs fx fy fz
dump_modify 2 element N20 N100

# thermo_style
thermo_style custom step temp press pe density ke etotal lx ly lz xlo xhi ylo yhi zlo zhi vol dt time cpu tpcpu spcpu cpuremain

# run info
timestep 0.1
thermo 5000

# fix

fix 1 all momentum 1000 linear 1 1 1 angular
variable T equal 300
fix 2 all nvt temp 300 370000 100.0

run 500000
Generated 0 of 1 mixed pair_coeff terms from geometric mixing rule
Unused restart file global fix info:
  fix style: npt, fix ID: 5
  update every 1 steps, delay 0 steps, check yes
Step          Temp          Press          PotEng        Density         KinEng         TotEng           Lx             Ly             Lz            Xlo            Xhi            Ylo            Yhi            Zlo            Zhi           Volume           Dt            Time           CPU           T/CPU          S/CPU         CPULeft
14260000   339.57713     -2.6832073     -47043025       1.1626799      1011.2027     -47042014       831.15652      831.15652      831.15652      1584.4217      2415.5783      1584.4217      2415.5783      1584.4217      2415.5783      5.7418052e+08  0.1            3610000        0              0              0              0
Averages over the last 51 of 101 rows, steps 14510000 to 14760000:
Temp Press PotEng Density KinEng TotEng Lx Ly Lz Xlo Xhi Ylo Yhi Zlo Zhi Volume Dt
277648 217.85 -4.73684e+07 1.16268 826789 -4.65416e+07 831.157 831.157 831.157 1584.42 2415.58 1584.42 2415.58 1584.42 2415.58 5.74181e+08 0.1
Loop time of 33.0126 on 4 procs for 500000 steps with 1000 atoms

unfix 2

fix 3 all nvt temp 370000 370000 $(100.0*dt) #iso 1.0 1.0 $(1000.0*dt)
fix 3 all nvt temp 370000 370000 10

run 2500000
Generated 0 of 1 mixed pair_coeff terms from geometric mixing rule
Step          Temp          Press          PotEng        Density         KinEng         TotEng           Lx             Ly             Lz            Xlo            Xhi            Ylo            Yhi            Zlo            Zhi           Volume           Dt            Time           CPU           T/CPU          S/CPU         CPULeft
14760000   371074.58      178.02215     -46840902       1.1626799      1104996.7     -45735905       831.15652      831.15652      831.15652      1584.4217      2415.5783      1584.4217      2415.5783      1584.4217      2415.5783      5.7418052e+08  0.1            3660000        0              0              0              0
Averages over the last 251 of 501 rows, steps 16010000 to 17260000:
Temp Press PotEng Density KinEng TotEng Lx Ly Lz Xlo Xhi Ylo Yhi Zlo Zhi Volume Dt
369763 -100.896 -4.65378e+07 1.16268 1.10109e+06 -4.54367e+07 831.157 831.157 831.157 1584.42 2415.58 1584.42 2415.58 1584.42 2415.58 5.74181e+08 0.1
Loop time of 165.592 on 4 procs for 2500000 steps with 1000 atoms

unfix 3

fix 4 all nvt temp 370000 300 100.0

run 500000
Generated 0 of 1 mixed pair_coeff terms from geometric mixing rule
Step          Temp          Press          PotEng        Density         KinEng         TotEng           Lx             Ly             Lz            Xlo            Xhi            Ylo            Yhi            Zlo            Zhi           Volume           Dt            Time           CPU           T/CPU          S/CPU         CPULeft
17260000   364753.78     -46.444378     -46546572       1.1626799      1086174.5     -45460398       831.15652      831.15652      831.15652      1584.4217      2415.5783      1584.4217      2415.5783      1584.4217      2415.5783      5.7418052e+08  0.1            3910000        0              0              0              0
Averages over the last 51 of 101 rows, steps 17510000 to 17760000:
Temp Press PotEng Density KinEng TotEng Lx Ly Lz Xlo Xhi Ylo Yhi Zlo Zhi Volume Dt
92937.8 -639.699 -4.76132e+07 1.16268 276753 -4.73364e+07 831.157 831.157 831.157 1584.42 2415.58 1584.42 2415.58 1584.42 2415.58 5.74181e+08 0.1
Loop time of 33.2406 on 4 procs for 500000 steps with 1000 atoms

unfix 4

fix 5 all npt temp 300 300 $(100.0*dt) iso 1.0 1.0 $(1000.0*dt)
fix 5 all npt temp 300 300 10 iso 1.0 1.0 $(1000.0*dt)
fix 5 all npt temp 300 300 10 iso 1.0 1.0 100

run 1500000
Generated 0 of 1 mixed pair_coeff terms from geometric mixing rule
Step          Temp          Press          PotEng        Density         KinEng         TotEng           Lx             Ly             Lz            Xlo            Xhi            Ylo            Yhi            Zlo            Zhi           Volume           Dt            Time           CPU           T/CPU          S/CPU         CPULeft
17760000   1358.8094     -761.36835     -47996212       1.1626799      4046.3024     -47992166       831.15652      831.15652      831.15652      1584.4217      2415.5783      1584.4217      2415.5783      1584.4217      2415.5783      5.7418052e+08  0.1            3960000        0              0              0              0
Averages over the last 151 of 301 rows, steps 18510000 to 19260000:
Temp Press PotEng Density KinEng TotEng Lx Ly Lz Xlo Xhi Ylo Yhi Zlo Zhi Volume Dt
300.012 0.780442 -4.92506e+07 1.23813 893.385 -4.92498e+07 813.921 813.921 813.921 1593.04 2406.96 1593.04 2406.96 1593.04 2406.96 5.39199e+08 0.1
Loop time of 121.135 on 4 procs for 1500000 steps with 1000 atoms

# run_style
run_style verlet

# write restart
write_restart ./pgnpmf/19/equpmf72.res
System init for write_restart ...
Generated 0 of 1 mixed pair_coeff terms from geometric mixing rule
