LAMMPS (23 Jun 2022 - Update 1)
# Read restart
read_restart ./pgnpmf/19/equpmf68.res
Reading restart file ...
  restart file = 23 Jun 2022, LAMMPS = 23 Jun 2022
  restoring atom style atomic from restart
  orthogonal box = (1571.5452 1571.5452 1571.5452) to (2428.4548 2428.4548 2428.4548)
  restoring pair style table from restart
  1000 atoms
  read_restart CPU = 0.005 seconds

# Settings

pair_style table spline 9941

pair_coeff 1 1 ./pgnpmf/N20.txt DE_GNP 75.6
pair_coeff 2 2 ./pgnpmf/N100.txt DE_GNP 115.92
pair_coeff 1 2 ./pgnpmf/mixed_potential.txt DE_GNP 95.66

#Neigh_list Calc Frequency

neigh_modify delay 0 every 1 check yes

# Saving Frequency (50 frames)

variable ts_save equal 5000

variable nts equal 5000/0.25
variable medium equal 20000*3
variable long equal 20000*5

# Dump
#dump_modify 1 first no sort id
dump 2 all cfg 50000 ./pgnpmf/19/equilibration/trajectory/dumpequ.tens_*.cfg mass type xs ys zs fx fy fz
dump_modify 2 element N20 N100

# thermo_style
thermo_style custom step temp press pe density ke etotal lx ly lz xlo xhi ylo yhi zlo zhi vol dt time cpu tpcpu spcpu cpuremain

# run info
timestep 0.25
thermo 5000

# fix

fix 1 all momentum 1000 linear 1 1 1 angular
variable T equal 300
fix 2 all nvt temp 300 370000 100.0

run 20000
Generated 0 of 1 mixed pair_coeff terms from geometric mixing rule
Unused restart file global fix info:
  fix style: npt, fix ID: 5
  update every 1 steps, delay 0 steps, check yes
Step          Temp          Press          PotEng        Density         KinEng         TotEng           Lx             Ly             Lz            Xlo            Xhi            Ylo            Yhi            Zlo            Zhi           Volume           Dt            Time           CPU           T/CPU          S/CPU         CPULeft
13660000   342.52581      2.3451317     -45755941       1.0609712      1019.9834     -45754921       856.90958      856.90958      856.90958      1571.5452      2428.4548      1571.5452      2428.4548      1571.5452      2428.4548      6.2922359e+08  0.25           3460000        0              0              0              0
Loop time of 1.32716 on 4 procs for 20000 steps with 1000 atoms

unfix 2

fix 3 all nvt temp 370000 370000 $(100.0*dt) #iso 1.0 1.0 $(1000.0*dt)
fix 3 all nvt temp 370000 370000 25

run 100000
Generated 0 of 1 mixed pair_coeff terms from geometric mixing rule
Step          Temp          Press          PotEng        Density         KinEng         TotEng           Lx             Ly             Lz            Xlo            Xhi            Ylo            Yhi            Zlo            Zhi           Volume           Dt            Time           CPU           T/CPU          S/CPU         CPULeft
13680000   365409.41     -72.448439     -45943810       1.0609712      1088126.8     -44855683       856.90958      856.90958      856.90958      1571.5452      2428.4548      1571.5452      2428.4548      1571.5452      2428.4548      6.2922359e+08  0.25           3465000        0              0              0              0
Averages over the last 11 of 21 rows, steps 13730000 to 13780000:
Temp Press PotEng Density KinEng TotEng Lx Ly Lz Xlo Xhi Ylo Yhi Zlo Zhi Volume Dt
373054 130.486 -4.55324e+07 1.06097 1.11089e+06 -4.44215e+07 856.91 856.91 856.91 1571.55 2428.45 1571.55 2428.45 1571.55 2428.45 6.29224e+08 0.25
Loop time of 6.66737 on 4 procs for 100000 steps with 1000 atoms

unfix 3

fix 4 all nvt temp 370000 300 100.0

run 20000
Generated 0 of 1 mixed pair_coeff terms from geometric mixing rule
Step          Temp          Press          PotEng        Density         KinEng         TotEng           Lx             Ly             Lz            Xlo            Xhi            Ylo            Yhi            Zlo            Zhi           Volume           Dt            Time           CPU           T/CPU          S/CPU         CPULeft
13780000   377447.73      74.34432      -45275903       1.0609712      1123974.9     -44151928       856.90958      856.90958      856.90958      1571.5452      2428.4548      1571.5452      2428.4548      1571.5452      2428.4548      6.2922359e+08  0.25           3490000        0              0              0              0
Loop time of 1.32268 on 4 procs for 20000 steps with 1000 atoms

unfix 4

fix 5 all npt temp 300 300 $(100.0*dt) iso 1.0 1.0 $(1000.0*dt)
fix 5 all npt temp 300 300 25 iso 1.0 1.0 $(1000.0*dt)
fix 5 all npt temp 300 300 25 iso 1.0 1.0 250

run 60000
Generated 0 of 1 mixed pair_coeff terms from geometric mixing rule
Step          Temp          Press          PotEng        Density         KinEng         TotEng           Lx             Ly             Lz            Xlo            Xhi            Ylo            Yhi            Zlo            Zhi           Volume           Dt            Time           CPU           T/CPU          S/CPU         CPULeft
13800000   9280.2138     -510.47909     -45502373       1.0609712      27634.892     -45474738       856.90958      856.90958      856.90958      1571.5452      2428.4548      1571.5452      2428.4548      1571.5452      2428.4548      6.2922359e+08  0.25           3495000        0              0              0              0
Averages over the last 7 of 13 rows, steps 13830000 to 13860000:
Temp Press PotEng Density KinEng TotEng Lx Ly Lz Xlo Xhi Ylo Yhi Zlo Zhi Volume Dt
342.729 0.754715 -4.62265e+07 1.0932 1020.59 -4.62255e+07 848.406 848.406 848.406 1575.8 2424.2 1575.8 2424.2 1575.8 2424.2 6.10677e+08 0.25
Loop time of 4.75096 on 4 procs for 60000 steps with 1000 atoms

# run_style
run_style verlet

# write restart
write_restart ./pgnpmf/19/equpmf69.res
System init for write_restart ...
Generated 0 of 1 mixed pair_coeff terms from geometric mixing rule
