LAMMPS (23 Jun 2022 - Update 1)
# Read restart
read_restart ./pgnpmf/19/equpmf58.res
Reading restart file ...
  restart file = 23 Jun 2022, LAMMPS = 23 Jun 2022
  restoring atom style atomic from restart
  orthogonal box = (1517.414 1517.414 1517.414) to (2482.586 2482.586 2482.586)
  restoring pair style table from restart
  1000 atoms
  read_restart CPU = 0.006 seconds

# Settings

pair_style table spline 9941

pair_coeff 1 1 ./pgnpmf/N20.txt DE_GNP 75.6
pair_coeff 2 2 ./pgnpmf/N100.txt DE_GNP 115.92
pair_coeff 1 2 ./pgnpmf/mixed_potential.txt DE_GNP 95.66

#Neigh_list Calc Frequency

neigh_modify delay 0 every 1 check yes

# Saving Frequency (50 frames)

variable ts_save equal 5000

variable nts equal 5000/0.25
variable medium equal 20000*3
variable long equal 20000*5

# Dump
#dump_modify 1 first no sort id
dump 2 all cfg 50000 ./pgnpmf/19/equilibration/trajectory/dumpequ.tens_*.cfg mass type xs ys zs fx fy fz
dump_modify 2 element N20 N100

# thermo_style
thermo_style custom step temp press pe density ke etotal lx ly lz xlo xhi ylo yhi zlo zhi vol dt time cpu tpcpu spcpu cpuremain

# run info
timestep 0.25
thermo 5000

# fix

fix 1 all momentum 1000 linear 1 1 1 angular
variable T equal 300
fix 2 all nvt temp 300 370000 100.0

run 20000
Generated 0 of 1 mixed pair_coeff terms from geometric mixing rule
Unused restart file global fix info:
  fix style: npt, fix ID: 5
  update every 1 steps, delay 0 steps, check yes
Step          Temp          Press          PotEng        Density         KinEng         TotEng           Lx             Ly             Lz            Xlo            Xhi            Ylo            Yhi            Zlo            Zhi           Volume           Dt            Time           CPU           T/CPU          S/CPU         CPULeft
11660000   343.68191      0.36122241    -41581051       0.74249652     1023.426      -41580028       965.17203      965.17203      965.17203      1517.414       2482.586       1517.414       2482.586       1517.414       2482.586       8.991128e+08   0.25           2960000        0              0              0              0
Loop time of 1.23206 on 4 procs for 20000 steps with 1000 atoms

unfix 2

fix 3 all nvt temp 370000 370000 $(100.0*dt) #iso 1.0 1.0 $(1000.0*dt)
fix 3 all nvt temp 370000 370000 25

run 100000
Generated 0 of 1 mixed pair_coeff terms from geometric mixing rule
Step          Temp          Press          PotEng        Density         KinEng         TotEng           Lx             Ly             Lz            Xlo            Xhi            Ylo            Yhi            Zlo            Zhi           Volume           Dt            Time           CPU           T/CPU          S/CPU         CPULeft
11680000   365380.63     -73.294285     -41657646       0.74249652     1088041.1     -40569605       965.17203      965.17203      965.17203      1517.414       2482.586       1517.414       2482.586       1517.414       2482.586       8.991128e+08   0.25           2965000        0              0              0              0
Averages over the last 11 of 21 rows, steps 11730000 to 11780000:
Temp Press PotEng Density KinEng TotEng Lx Ly Lz Xlo Xhi Ylo Yhi Zlo Zhi Volume Dt
364881 36.9678 -4.14214e+07 0.742497 1.08655e+06 -4.03348e+07 965.172 965.172 965.172 1517.41 2482.59 1517.41 2482.59 1517.41 2482.59 8.99113e+08 0.25
Loop time of 6.21302 on 4 procs for 100000 steps with 1000 atoms

unfix 3

fix 4 all nvt temp 370000 300 100.0

run 20000
Generated 0 of 1 mixed pair_coeff terms from geometric mixing rule
Step          Temp          Press          PotEng        Density         KinEng         TotEng           Lx             Ly             Lz            Xlo            Xhi            Ylo            Yhi            Zlo            Zhi           Volume           Dt            Time           CPU           T/CPU          S/CPU         CPULeft
11780000   365334.75     -24.490744     -41321416       0.74249652     1087904.5     -40233512       965.17203      965.17203      965.17203      1517.414       2482.586       1517.414       2482.586       1517.414       2482.586       8.991128e+08   0.25           2990000        0              0              0              0
Loop time of 1.23092 on 4 procs for 20000 steps with 1000 atoms

unfix 4

fix 5 all npt temp 300 300 $(100.0*dt) iso 1.0 1.0 $(1000.0*dt)
fix 5 all npt temp 300 300 25 iso 1.0 1.0 $(1000.0*dt)
fix 5 all npt temp 300 300 25 iso 1.0 1.0 250

run 60000
Generated 0 of 1 mixed pair_coeff terms from geometric mixing rule
Step          Temp          Press          PotEng        Density         KinEng         TotEng           Lx             Ly             Lz            Xlo            Xhi            Ylo            Yhi            Zlo            Zhi           Volume           Dt            Time           CPU           T/CPU          S/CPU         CPULeft
11800000   9346.9392     -357.53324     -41458622       0.74249652     27833.589     -41430788       965.17203      965.17203      965.17203      1517.414       2482.586       1517.414       2482.586       1517.414       2482.586       8.991128e+08   0.25           2995000        0              0              0              0
Averages over the last 7 of 13 rows, steps 11830000 to 11860000:
Temp Press PotEng Density KinEng TotEng Lx Ly Lz Xlo Xhi Ylo Yhi Zlo Zhi Volume Dt
344.615 1.65193 -4.20867e+07 0.767676 1026.2 -4.20857e+07 954.503 954.503 954.503 1522.75 2477.25 1522.75 2477.25 1522.75 2477.25 8.69625e+08 0.25
Loop time of 4.50078 on 4 procs for 60000 steps with 1000 atoms

# run_style
run_style verlet

# write restart
write_restart ./pgnpmf/19/equpmf59.res
System init for write_restart ...
Generated 0 of 1 mixed pair_coeff terms from geometric mixing rule
