LAMMPS (23 Jun 2022 - Update 1)
# Read restart
read_restart ./pgnpmf/64/equpmf25.res
Reading restart file ...
  restart file = 23 Jun 2022, LAMMPS = 23 Jun 2022
  restoring atom style atomic from restart
  orthogonal box = (2159.6557 2159.6557 2159.6557) to (2840.3443 2840.3443 2840.3443)
  restoring pair style table from restart
  1000 atoms
  read_restart CPU = 0.009 seconds

# Settings

pair_style table spline 9941

pair_coeff 1 1 ./pgnpmf/N20.txt DE_GNP 75.6
pair_coeff 2 2 ./pgnpmf/N100.txt DE_GNP 115.92
pair_coeff 1 2 ./pgnpmf/mixed_potential.txt DE_GNP 95.66

#Neigh_list Calc Frequency

neigh_modify delay 0 every 1 check yes

# Saving Frequency (50 frames)

variable ts_save equal 5000

# Dump
#dump_modify 1 first no sort id
dump 2 all cfg 50000 ./pgnpmf/64/equilibration/trajectory/dumpgen.tens_*.cfg mass type xs ys zs fx fy fz
dump_modify 2 element N20 N100

# thermo_style
thermo_style custom step temp press pe density ke etotal lx ly lz xlo xhi ylo yhi zlo zhi vol dt time cpu tpcpu spcpu cpuremain

# run info
timestep 0.5
thermo 200

# fix

fix 1 all momentum 1000 linear 1 1 1 angular
variable T equal 300
fix 2 all nvt temp 300 370000 100.0

run 100000
Generated 0 of 1 mixed pair_coeff terms from geometric mixing rule
Unused restart file global fix info:
  fix style: npt, fix ID: 5
  update every 1 steps, delay 0 steps, check yes
Step          Temp          Press          PotEng        Density         KinEng         TotEng           Lx             Ly             Lz            Xlo            Xhi            Ylo            Yhi            Zlo            Zhi           Volume           Dt            Time           CPU           T/CPU          S/CPU         CPULeft
17910000   311.09558     -1.068648      -24493743       1.5896861      926.38952     -24492817       680.68858      680.68858      680.68858      2159.6557      2840.3443      2159.6557      2840.3443      2159.6557      2840.3443      3.1538817e+08  0.5            9160000        0              0              0              0
Averages over the last 251 of 501 rows, steps 17960000 to 18010000:
Temp Press PotEng Density KinEng TotEng Lx Ly Lz Xlo Xhi Ylo Yhi Zlo Zhi Volume Dt
277529 501.657 -2.44282e+07 1.58969 826434 -2.36017e+07 680.689 680.689 680.689 2159.66 2840.34 2159.66 2840.34 2159.66 2840.34 3.15388e+08 0.5
Loop time of 4.92277 on 4 procs for 100000 steps with 1000 atoms

unfix 2

fix 3 all nvt temp 370000 370000 $(100.0*dt) #iso 1.0 1.0 $(1000.0*dt)
fix 3 all nvt temp 370000 370000 50

run 200000
Generated 0 of 1 mixed pair_coeff terms from geometric mixing rule
Step          Temp          Press          PotEng        Density         KinEng         TotEng           Lx             Ly             Lz            Xlo            Xhi            Ylo            Yhi            Zlo            Zhi           Volume           Dt            Time           CPU           T/CPU          S/CPU         CPULeft
18010000   363446.34      688.32682     -24124986       1.5896861      1082281.1     -23042705       680.68858      680.68858      680.68858      2159.6557      2840.3443      2159.6557      2840.3443      2159.6557      2840.3443      3.1538817e+08  0.5            9210000        0              0              0              0
Averages over the last 501 of 1001 rows, steps 18110000 to 18210000:
Temp Press PotEng Density KinEng TotEng Lx Ly Lz Xlo Xhi Ylo Yhi Zlo Zhi Volume Dt
370271 275.445 -2.33418e+07 1.58969 1.1026e+06 -2.22392e+07 680.689 680.689 680.689 2159.66 2840.34 2159.66 2840.34 2159.66 2840.34 3.15388e+08 0.5
Loop time of 9.92967 on 4 procs for 200000 steps with 1000 atoms

unfix 3

fix 4 all nvt temp 370000 300 100.0

run 100000
Generated 0 of 1 mixed pair_coeff terms from geometric mixing rule
Step          Temp          Press          PotEng        Density         KinEng         TotEng           Lx             Ly             Lz            Xlo            Xhi            Ylo            Yhi            Zlo            Zhi           Volume           Dt            Time           CPU           T/CPU          S/CPU         CPULeft
18210000   346895.29      312.596       -23270706       1.5896861      1032994.9     -22237711       680.68858      680.68858      680.68858      2159.6557      2840.3443      2159.6557      2840.3443      2159.6557      2840.3443      3.1538817e+08  0.5            9310000        0              0              0              0
Averages over the last 251 of 501 rows, steps 18260000 to 18310000:
Temp Press PotEng Density KinEng TotEng Lx Ly Lz Xlo Xhi Ylo Yhi Zlo Zhi Volume Dt
93133.6 -829.915 -2.38916e+07 1.58969 277336 -2.36142e+07 680.689 680.689 680.689 2159.66 2840.34 2159.66 2840.34 2159.66 2840.34 3.15388e+08 0.5
Loop time of 4.87154 on 4 procs for 100000 steps with 1000 atoms

unfix 4

fix 5 all npt temp 300 300 $(100.0*dt) iso 1.0 1.0 $(1000.0*dt)
fix 5 all npt temp 300 300 50 iso 1.0 1.0 $(1000.0*dt)
fix 5 all npt temp 300 300 50 iso 1.0 1.0 500

run 300000
Generated 0 of 1 mixed pair_coeff terms from geometric mixing rule
Step          Temp          Press          PotEng        Density         KinEng         TotEng           Lx             Ly             Lz            Xlo            Xhi            Ylo            Yhi            Zlo            Zhi           Volume           Dt            Time           CPU           T/CPU          S/CPU         CPULeft
18310000   1366.5741     -1209.9614     -24229812       1.5896861      4069.4244     -24225742       680.68858      680.68858      680.68858      2159.6557      2840.3443      2159.6557      2840.3443      2159.6557      2840.3443      3.1538817e+08  0.5            9360000        0              0              0              0
Averages over the last 751 of 1501 rows, steps 18460000 to 18610000:
Temp Press PotEng Density KinEng TotEng Lx Ly Lz Xlo Xhi Ylo Yhi Zlo Zhi Volume Dt
313.382 0.771066 -2.53124e+07 1.72013 933.197 -2.53115e+07 663.032 663.032 663.032 2168.48 2831.52 2168.48 2831.52 2168.48 2831.52 2.91478e+08 0.5
Loop time of 17.9425 on 4 procs for 300000 steps with 1000 atoms

# run_style
run_style verlet

# write restart
write_restart ./pgnpmf/64/equpmf26.res
System init for write_restart ...
Generated 0 of 1 mixed pair_coeff terms from geometric mixing rule
