LAMMPS (23 Jun 2022 - Update 1)
# Read restart
read_restart ./pgnpmf/64/equpmf1.res
Reading restart file ...
  restart file = 23 Jun 2022, LAMMPS = 23 Jun 2022
  restoring atom style atomic from restart
  orthogonal box = (1536.5721 1536.5721 1536.5721) to (3463.4279 3463.4279 3463.4279)
  restoring pair style table from restart
  1000 atoms
  read_restart CPU = 0.006 seconds

# Settings

pair_style table spline 9941

pair_coeff 1 1 ./pgnpmf/N20.txt DE_GNP 75.6
pair_coeff 2 2 ./pgnpmf/N100.txt DE_GNP 115.92
pair_coeff 1 2 ./pgnpmf/mixed_potential.txt DE_GNP 95.66

#Neigh_list Calc Frequency

neigh_modify delay 0 every 1 check yes

# Saving Frequency (50 frames)

variable ts_save equal 5000

# Dump
#dump_modify 1 first no sort id
dump 2 all cfg 50000 ./pgnpmf/64/equilibration/trajectory/dumpgen.tens_*.cfg mass type xs ys zs fx fy fz
dump_modify 2 element N20 N100

# thermo_style
thermo_style custom step temp press pe density ke etotal lx ly lz xlo xhi ylo yhi zlo zhi vol dt time cpu tpcpu spcpu cpuremain

# run info
timestep 0.5
thermo 200

# fix

fix 1 all momentum 1000 linear 1 1 1 angular
variable T equal 300
fix 2 all nvt temp 300 370000 100.0

run 100000
Generated 0 of 1 mixed pair_coeff terms from geometric mixing rule
Unused restart file global fix info:
  fix style: npt, fix ID: 5
  update every 1 steps, delay 0 steps, check yes
Step          Temp          Press          PotEng        Density         KinEng         TotEng           Lx             Ly             Lz            Xlo            Xhi            Ylo            Yhi            Zlo            Zhi           Volume           Dt            Time           CPU           T/CPU          S/CPU         CPULeft
1110000   320.61014      1.0354987     -1395706.5      0.070082432    954.72225     -1394751.8      1926.8557      1926.8557      1926.8557      1536.5721      3463.4279      1536.5721      3463.4279      1536.5721      3463.4279      7.153978e+09   0.5            760000         0              0              0              0
Averages over the last 251 of 501 rows, steps 1160000 to 1210000:
Temp Press PotEng Density KinEng TotEng Lx Ly Lz Xlo Xhi Ylo Yhi Zlo Zhi Volume Dt
277650 4.70715 -883595 0.0700824 826795 -56799.4 1926.86 1926.86 1926.86 1536.57 3463.43 1536.57 3463.43 1536.57 3463.43 7.15398e+09 0.5
Loop time of 1.58528 on 4 procs for 100000 steps with 1000 atoms

unfix 2

fix 3 all nvt temp 370000 370000 $(100.0*dt) #iso 1.0 1.0 $(1000.0*dt)
fix 3 all nvt temp 370000 370000 50

run 200000
Generated 0 of 1 mixed pair_coeff terms from geometric mixing rule
Step          Temp          Press          PotEng        Density         KinEng         TotEng           Lx             Ly             Lz            Xlo            Xhi            Ylo            Yhi            Zlo            Zhi           Volume           Dt            Time           CPU           T/CPU          S/CPU         CPULeft
1210000   371941         6.9437822     -916958.85      0.070082432    1107576.8      190617.93      1926.8557      1926.8557      1926.8557      1536.5721      3463.4279      1536.5721      3463.4279      1536.5721      3463.4279      7.153978e+09   0.5            810000         0              0              0              0
Averages over the last 501 of 1001 rows, steps 1310000 to 1410000:
Temp Press PotEng Density KinEng TotEng Lx Ly Lz Xlo Xhi Ylo Yhi Zlo Zhi Volume Dt
370198 6.66714 -1.12815e+06 0.0700824 1.10239e+06 -25768.6 1926.86 1926.86 1926.86 1536.57 3463.43 1536.57 3463.43 1536.57 3463.43 7.15398e+09 0.5
Loop time of 3.16385 on 4 procs for 200000 steps with 1000 atoms

unfix 3

fix 4 all nvt temp 370000 300 100.0

run 100000
Generated 0 of 1 mixed pair_coeff terms from geometric mixing rule
Step          Temp          Press          PotEng        Density         KinEng         TotEng           Lx             Ly             Lz            Xlo            Xhi            Ylo            Yhi            Zlo            Zhi           Volume           Dt            Time           CPU           T/CPU          S/CPU         CPULeft
1410000   361833.46      5.9614065     -1163638.4      0.070082432    1077478.3     -86160.167      1926.8557      1926.8557      1926.8557      1536.5721      3463.4279      1536.5721      3463.4279      1536.5721      3463.4279      7.153978e+09   0.5            910000         0              0              0              0
Averages over the last 251 of 501 rows, steps 1460000 to 1510000:
Temp Press PotEng Density KinEng TotEng Lx Ly Lz Xlo Xhi Ylo Yhi Zlo Zhi Volume Dt
92945.2 0.154709 -1.38379e+06 0.0700824 276775 -1.10701e+06 1926.86 1926.86 1926.86 1536.57 3463.43 1536.57 3463.43 1536.57 3463.43 7.15398e+09 0.5
Loop time of 1.58965 on 4 procs for 100000 steps with 1000 atoms

unfix 4

fix 5 all npt temp 300 300 $(100.0*dt) iso 1.0 1.0 $(1000.0*dt)
fix 5 all npt temp 300 300 50 iso 1.0 1.0 $(1000.0*dt)
fix 5 all npt temp 300 300 50 iso 1.0 1.0 500

run 300000
Generated 0 of 1 mixed pair_coeff terms from geometric mixing rule
Step          Temp          Press          PotEng        Density         KinEng         TotEng           Lx             Ly             Lz            Xlo            Xhi            Ylo            Yhi            Zlo            Zhi           Volume           Dt            Time           CPU           T/CPU          S/CPU         CPULeft
1510000   1225.6926     -3.0075881     -1474481.7      0.070082432    3649.9034     -1470831.8      1926.8557      1926.8557      1926.8557      1536.5721      3463.4279      1536.5721      3463.4279      1536.5721      3463.4279      7.153978e+09   0.5            960000         0              0              0              0
Averages over the last 751 of 1501 rows, steps 1660000 to 1810000:
Temp Press PotEng Density KinEng TotEng Lx Ly Lz Xlo Xhi Ylo Yhi Zlo Zhi Volume Dt
313.719 0.998871 -2.17377e+06 0.113395 934.202 -2.17284e+06 1643.1 1643.1 1643.1 1678.45 3321.55 1678.45 3321.55 1678.45 3321.55 4.44333e+09 0.5
Loop time of 7.74089 on 4 procs for 300000 steps with 1000 atoms

# run_style
run_style verlet

# write restart
write_restart ./pgnpmf/64/equpmf2.res
System init for write_restart ...
Generated 0 of 1 mixed pair_coeff terms from geometric mixing rule
