LAMMPS (23 Jun 2022 - Update 1)
# Read restart
read_restart ./pgnpmf/64/equpmf8.res
Reading restart file ...
  restart file = 23 Jun 2022, LAMMPS = 23 Jun 2022
  restoring atom style atomic from restart
  orthogonal box = (1981.0231 1981.0231 1981.0231) to (3018.9769 3018.9769 3018.9769)
  restoring pair style table from restart
  1000 atoms
  read_restart CPU = 0.009 seconds

# Settings

pair_style table spline 9941

pair_coeff 1 1 ./pgnpmf/N20.txt DE_GNP 75.6
pair_coeff 2 2 ./pgnpmf/N100.txt DE_GNP 115.92
pair_coeff 1 2 ./pgnpmf/mixed_potential.txt DE_GNP 95.66

#Neigh_list Calc Frequency

neigh_modify delay 0 every 1 check yes

# Saving Frequency (50 frames)

variable ts_save equal 5000

# Dump
#dump_modify 1 first no sort id
dump 2 all cfg 50000 ./pgnpmf/64/equilibration/trajectory/dumpgen.tens_*.cfg mass type xs ys zs fx fy fz
dump_modify 2 element N20 N100

# thermo_style
thermo_style custom step temp press pe density ke etotal lx ly lz xlo xhi ylo yhi zlo zhi vol dt time cpu tpcpu spcpu cpuremain

# run info
timestep 0.5
thermo 200

# fix

fix 1 all momentum 1000 linear 1 1 1 angular
variable T equal 300
fix 2 all nvt temp 300 370000 100.0

run 100000
Generated 0 of 1 mixed pair_coeff terms from geometric mixing rule
Unused restart file global fix info:
  fix style: npt, fix ID: 5
  update every 1 steps, delay 0 steps, check yes
Step          Temp          Press          PotEng        Density         KinEng         TotEng           Lx             Ly             Lz            Xlo            Xhi            Ylo            Yhi            Zlo            Zhi           Volume           Dt            Time           CPU           T/CPU          S/CPU         CPULeft
6010000   312.04593      1.0449588     -13666450       0.44835577     929.21949     -13665521       1037.9537      1037.9537      1037.9537      1981.0231      3018.9769      1981.0231      3018.9769      1981.0231      3018.9769      1.1182374e+09  0.5            3210000        0              0              0              0
Averages over the last 251 of 501 rows, steps 6060000 to 6110000:
Temp Press PotEng Density KinEng TotEng Lx Ly Lz Xlo Xhi Ylo Yhi Zlo Zhi Volume Dt
277522 15.9715 -1.35501e+07 0.448356 826414 -1.27237e+07 1037.95 1037.95 1037.95 1981.02 3018.98 1981.02 3018.98 1981.02 3018.98 1.11824e+09 0.5
Loop time of 3.12841 on 4 procs for 100000 steps with 1000 atoms

unfix 2

fix 3 all nvt temp 370000 370000 $(100.0*dt) #iso 1.0 1.0 $(1000.0*dt)
fix 3 all nvt temp 370000 370000 50

run 200000
Generated 0 of 1 mixed pair_coeff terms from geometric mixing rule
Step          Temp          Press          PotEng        Density         KinEng         TotEng           Lx             Ly             Lz            Xlo            Xhi            Ylo            Yhi            Zlo            Zhi           Volume           Dt            Time           CPU           T/CPU          S/CPU         CPULeft
6110000   385090.06      42.766975     -13180890       0.44835577     1146732.4     -12034157       1037.9537      1037.9537      1037.9537      1981.0231      3018.9769      1981.0231      3018.9769      1981.0231      3018.9769      1.1182374e+09  0.5            3260000        0              0              0              0
Averages over the last 501 of 1001 rows, steps 6210000 to 6310000:
Temp Press PotEng Density KinEng TotEng Lx Ly Lz Xlo Xhi Ylo Yhi Zlo Zhi Volume Dt
370165 11.6623 -1.26389e+07 0.448356 1.10229e+06 -1.15366e+07 1037.95 1037.95 1037.95 1981.02 3018.98 1981.02 3018.98 1981.02 3018.98 1.11824e+09 0.5
Loop time of 6.09032 on 4 procs for 200000 steps with 1000 atoms

unfix 3

fix 4 all nvt temp 370000 300 100.0

run 100000
Generated 0 of 1 mixed pair_coeff terms from geometric mixing rule
Step          Temp          Press          PotEng        Density         KinEng         TotEng           Lx             Ly             Lz            Xlo            Xhi            Ylo            Yhi            Zlo            Zhi           Volume           Dt            Time           CPU           T/CPU          S/CPU         CPULeft
6310000   382187.17     -6.3021937     -12975029       0.44835577     1138088.1     -11836941       1037.9537      1037.9537      1037.9537      1981.0231      3018.9769      1981.0231      3018.9769      1981.0231      3018.9769      1.1182374e+09  0.5            3360000        0              0              0              0
Averages over the last 251 of 501 rows, steps 6360000 to 6410000:
Temp Press PotEng Density KinEng TotEng Lx Ly Lz Xlo Xhi Ylo Yhi Zlo Zhi Volume Dt
93021.3 -57.8256 -1.39466e+07 0.448356 277002 -1.36696e+07 1037.95 1037.95 1037.95 1981.02 3018.98 1981.02 3018.98 1981.02 3018.98 1.11824e+09 0.5
Loop time of 3.10547 on 4 procs for 100000 steps with 1000 atoms

unfix 4

fix 5 all npt temp 300 300 $(100.0*dt) iso 1.0 1.0 $(1000.0*dt)
fix 5 all npt temp 300 300 50 iso 1.0 1.0 $(1000.0*dt)
fix 5 all npt temp 300 300 50 iso 1.0 1.0 500

run 300000
Generated 0 of 1 mixed pair_coeff terms from geometric mixing rule
Step          Temp          Press          PotEng        Density         KinEng         TotEng           Lx             Ly             Lz            Xlo            Xhi            Ylo            Yhi            Zlo            Zhi           Volume           Dt            Time           CPU           T/CPU          S/CPU         CPULeft
6410000   1369.6436     -93.784421     -14453078       0.44835577     4078.5647     -14449000       1037.9537      1037.9537      1037.9537      1981.0231      3018.9769      1981.0231      3018.9769      1981.0231      3018.9769      1.1182374e+09  0.5            3410000        0              0              0              0
Averages over the last 751 of 1501 rows, steps 6560000 to 6710000:
Temp Press PotEng Density KinEng TotEng Lx Ly Lz Xlo Xhi Ylo Yhi Zlo Zhi Volume Dt
313.387 0.993892 -1.49468e+07 0.491958 933.212 -1.49459e+07 1006.36 1006.36 1006.36 1996.82 3003.18 1996.82 3003.18 1996.82 3003.18 1.01926e+09 0.5
Loop time of 12.542 on 4 procs for 300000 steps with 1000 atoms

# run_style
run_style verlet

# write restart
write_restart ./pgnpmf/64/equpmf9.res
System init for write_restart ...
Generated 0 of 1 mixed pair_coeff terms from geometric mixing rule
