LAMMPS (23 Jun 2022 - Update 1)
# Read restart
read_restart ./pgnpmf/64/equpmf19.res
Reading restart file ...
  restart file = 23 Jun 2022, LAMMPS = 23 Jun 2022
  restoring atom style atomic from restart
  orthogonal box = (2106.5976 2106.5976 2106.5976) to (2893.4024 2893.4024 2893.4024)
  restoring pair style table from restart
  1000 atoms
  read_restart CPU = 0.009 seconds

# Settings

pair_style table spline 9941

pair_coeff 1 1 ./pgnpmf/N20.txt DE_GNP 75.6
pair_coeff 2 2 ./pgnpmf/N100.txt DE_GNP 115.92
pair_coeff 1 2 ./pgnpmf/mixed_potential.txt DE_GNP 95.66

#Neigh_list Calc Frequency

neigh_modify delay 0 every 1 check yes

# Saving Frequency (50 frames)

variable ts_save equal 5000

# Dump
#dump_modify 1 first no sort id
dump 2 all cfg 50000 ./pgnpmf/64/equilibration/trajectory/dumpgen.tens_*.cfg mass type xs ys zs fx fy fz
dump_modify 2 element N20 N100

# thermo_style
thermo_style custom step temp press pe density ke etotal lx ly lz xlo xhi ylo yhi zlo zhi vol dt time cpu tpcpu spcpu cpuremain

# run info
timestep 0.5
thermo 200

# fix

fix 1 all momentum 1000 linear 1 1 1 angular
variable T equal 300
fix 2 all nvt temp 300 370000 100.0

run 100000
Generated 0 of 1 mixed pair_coeff terms from geometric mixing rule
Unused restart file global fix info:
  fix style: npt, fix ID: 5
  update every 1 steps, delay 0 steps, check yes
Step          Temp          Press          PotEng        Density         KinEng         TotEng           Lx             Ly             Lz            Xlo            Xhi            Ylo            Yhi            Zlo            Zhi           Volume           Dt            Time           CPU           T/CPU          S/CPU         CPULeft
13710000   310.33146     -1.8823568     -22813842       1.0293329      924.1141      -22812918       786.80475      786.80475      786.80475      2106.5976      2893.4024      2106.5976      2893.4024      2106.5976      2893.4024      4.870807e+08   0.5            7060000        0              0              0              0
Averages over the last 251 of 501 rows, steps 13760000 to 13810000:
Temp Press PotEng Density KinEng TotEng Lx Ly Lz Xlo Xhi Ylo Yhi Zlo Zhi Volume Dt
277961 101.131 -2.25432e+07 1.02933 827720 -2.17155e+07 786.805 786.805 786.805 2106.6 2893.4 2106.6 2893.4 2106.6 2893.4 4.87081e+08 0.5
Loop time of 4.42025 on 4 procs for 100000 steps with 1000 atoms

unfix 2

fix 3 all nvt temp 370000 370000 $(100.0*dt) #iso 1.0 1.0 $(1000.0*dt)
fix 3 all nvt temp 370000 370000 50

run 200000
Generated 0 of 1 mixed pair_coeff terms from geometric mixing rule
Step          Temp          Press          PotEng        Density         KinEng         TotEng           Lx             Ly             Lz            Xlo            Xhi            Ylo            Yhi            Zlo            Zhi           Volume           Dt            Time           CPU           T/CPU          S/CPU         CPULeft
13810000   388568.27      125.94646     -22192010       1.0293329      1157090       -21034920       786.80475      786.80475      786.80475      2106.5976      2893.4024      2106.5976      2893.4024      2106.5976      2893.4024      4.870807e+08   0.5            7110000        0              0              0              0
Averages over the last 501 of 1001 rows, steps 13910000 to 14010000:
Temp Press PotEng Density KinEng TotEng Lx Ly Lz Xlo Xhi Ylo Yhi Zlo Zhi Volume Dt
370110 86.6604 -2.13059e+07 1.02933 1.10212e+06 -2.02038e+07 786.805 786.805 786.805 2106.6 2893.4 2106.6 2893.4 2106.6 2893.4 4.87081e+08 0.5
Loop time of 9.08251 on 4 procs for 200000 steps with 1000 atoms

unfix 3

fix 4 all nvt temp 370000 300 100.0

run 100000
Generated 0 of 1 mixed pair_coeff terms from geometric mixing rule
Step          Temp          Press          PotEng        Density         KinEng         TotEng           Lx             Ly             Lz            Xlo            Xhi            Ylo            Yhi            Zlo            Zhi           Volume           Dt            Time           CPU           T/CPU          S/CPU         CPULeft
14010000   352986.3       28.081316     -21195131       1.0293329      1051132.9     -20143998       786.80475      786.80475      786.80475      2106.5976      2893.4024      2106.5976      2893.4024      2106.5976      2893.4024      4.870807e+08   0.5            7210000        0              0              0              0
Averages over the last 251 of 501 rows, steps 14060000 to 14110000:
Temp Press PotEng Density KinEng TotEng Lx Ly Lz Xlo Xhi Ylo Yhi Zlo Zhi Volume Dt
93078.5 -284.706 -2.18382e+07 1.02933 277172 -2.15611e+07 786.805 786.805 786.805 2106.6 2893.4 2106.6 2893.4 2106.6 2893.4 4.87081e+08 0.5
Loop time of 4.29611 on 4 procs for 100000 steps with 1000 atoms

unfix 4

fix 5 all npt temp 300 300 $(100.0*dt) iso 1.0 1.0 $(1000.0*dt)
fix 5 all npt temp 300 300 50 iso 1.0 1.0 $(1000.0*dt)
fix 5 all npt temp 300 300 50 iso 1.0 1.0 500

run 300000
Generated 0 of 1 mixed pair_coeff terms from geometric mixing rule
Step          Temp          Press          PotEng        Density         KinEng         TotEng           Lx             Ly             Lz            Xlo            Xhi            Ylo            Yhi            Zlo            Zhi           Volume           Dt            Time           CPU           T/CPU          S/CPU         CPULeft
14110000   1362.3511     -391.63083     -22255495       1.0293329      4056.8489     -22251438       786.80475      786.80475      786.80475      2106.5976      2893.4024      2106.5976      2893.4024      2106.5976      2893.4024      4.870807e+08   0.5            7260000        0              0              0              0
Averages over the last 751 of 1501 rows, steps 14260000 to 14410000:
Temp Press PotEng Density KinEng TotEng Lx Ly Lz Xlo Xhi Ylo Yhi Zlo Zhi Volume Dt
312.378 0.984183 -2.28782e+07 1.09046 930.207 -2.28773e+07 771.824 771.824 771.824 2114.09 2885.91 2114.09 2885.91 2114.09 2885.91 4.59789e+08 0.5
Loop time of 16.1456 on 4 procs for 300000 steps with 1000 atoms

# run_style
run_style verlet

# write restart
write_restart ./pgnpmf/64/equpmf20.res
System init for write_restart ...
Generated 0 of 1 mixed pair_coeff terms from geometric mixing rule
