LAMMPS (23 Jun 2022 - Update 1)
# Read restart
read_restart ./pgnpmf/64/equpmf37.res
Reading restart file ...
  restart file = 23 Jun 2022, LAMMPS = 23 Jun 2022
  restoring atom style atomic from restart
  orthogonal box = (2187.2753 2187.2753 2187.2753) to (2812.7247 2812.7247 2812.7247)
  restoring pair style table from restart
  1000 atoms
  read_restart CPU = 0.007 seconds

# Settings

pair_style table spline 9941

pair_coeff 1 1 ./pgnpmf/N20.txt DE_GNP 75.6
pair_coeff 2 2 ./pgnpmf/N100.txt DE_GNP 115.92
pair_coeff 1 2 ./pgnpmf/mixed_potential.txt DE_GNP 95.66

#Neigh_list Calc Frequency

neigh_modify delay 0 every 1 check yes

# Saving Frequency (50 frames)

variable ts_save equal 5000

# Dump
#dump_modify 1 first no sort id
dump 2 all cfg 50000 ./pgnpmf/64/equilibration/trajectory/dumpgen.tens_*.cfg mass type xs ys zs fx fy fz
dump_modify 2 element N20 N100

# thermo_style
thermo_style custom step temp press pe density ke etotal lx ly lz xlo xhi ylo yhi zlo zhi vol dt time cpu tpcpu spcpu cpuremain

# run info
timestep 0.5
thermo 200

# fix

fix 1 all momentum 1000 linear 1 1 1 angular
variable T equal 300
fix 2 all nvt temp 300 370000 100.0

run 100000
Generated 0 of 1 mixed pair_coeff terms from geometric mixing rule
Unused restart file global fix info:
  fix style: npt, fix ID: 5
  update every 1 steps, delay 0 steps, check yes
Step          Temp          Press          PotEng        Density         KinEng         TotEng           Lx             Ly             Lz            Xlo            Xhi            Ylo            Yhi            Zlo            Zhi           Volume           Dt            Time           CPU           T/CPU          S/CPU         CPULeft
26310000   306.017       -1.0243881     -27558093       2.0491802      911.26636     -27557181       625.44943      625.44943      625.44943      2187.2753      2812.7247      2187.2753      2812.7247      2187.2753      2812.7247      2.4466769e+08  0.5            13360000       0              0              0              0
Averages over the last 251 of 501 rows, steps 26360000 to 26410000:
Temp Press PotEng Density KinEng TotEng Lx Ly Lz Xlo Xhi Ylo Yhi Zlo Zhi Volume Dt
277599 2524.59 -2.67566e+07 2.04918 826642 -2.59299e+07 625.449 625.449 625.449 2187.28 2812.72 2187.28 2812.72 2187.28 2812.72 2.44668e+08 0.5
Loop time of 5.56614 on 4 procs for 100000 steps with 1000 atoms

unfix 2

fix 3 all nvt temp 370000 370000 $(100.0*dt) #iso 1.0 1.0 $(1000.0*dt)
fix 3 all nvt temp 370000 370000 50

run 200000
Generated 0 of 1 mixed pair_coeff terms from geometric mixing rule
Step          Temp          Press          PotEng        Density         KinEng         TotEng           Lx             Ly             Lz            Xlo            Xhi            Ylo            Yhi            Zlo            Zhi           Volume           Dt            Time           CPU           T/CPU          S/CPU         CPULeft
26410000   376105.32      3052.7096     -26625134       2.0491802      1119977.4     -25505157       625.44943      625.44943      625.44943      2187.2753      2812.7247      2187.2753      2812.7247      2187.2753      2812.7247      2.4466769e+08  0.5            13410000       0              0              0              0
Averages over the last 501 of 1001 rows, steps 26510000 to 26610000:
Temp Press PotEng Density KinEng TotEng Lx Ly Lz Xlo Xhi Ylo Yhi Zlo Zhi Volume Dt
369973 3161.11 -2.6514e+07 2.04918 1.10172e+06 -2.54122e+07 625.449 625.449 625.449 2187.28 2812.72 2187.28 2812.72 2187.28 2812.72 2.44668e+08 0.5
Loop time of 11.1327 on 4 procs for 200000 steps with 1000 atoms

unfix 3

fix 4 all nvt temp 370000 300 100.0

run 100000
Generated 0 of 1 mixed pair_coeff terms from geometric mixing rule
Step          Temp          Press          PotEng        Density         KinEng         TotEng           Lx             Ly             Lz            Xlo            Xhi            Ylo            Yhi            Zlo            Zhi           Volume           Dt            Time           CPU           T/CPU          S/CPU         CPULeft
26610000   357661.85      3099.0263     -26545426       2.0491802      1065055.9     -25480370       625.44943      625.44943      625.44943      2187.2753      2812.7247      2187.2753      2812.7247      2187.2753      2812.7247      2.4466769e+08  0.5            13510000       0              0              0              0
Averages over the last 251 of 501 rows, steps 26660000 to 26710000:
Temp Press PotEng Density KinEng TotEng Lx Ly Lz Xlo Xhi Ylo Yhi Zlo Zhi Volume Dt
93057.7 860.817 -2.7216e+07 2.04918 277110 -2.69388e+07 625.449 625.449 625.449 2187.28 2812.72 2187.28 2812.72 2187.28 2812.72 2.44668e+08 0.5
Loop time of 5.57304 on 4 procs for 100000 steps with 1000 atoms

unfix 4

fix 5 all npt temp 300 300 $(100.0*dt) iso 1.0 1.0 $(1000.0*dt)
fix 5 all npt temp 300 300 50 iso 1.0 1.0 $(1000.0*dt)
fix 5 all npt temp 300 300 50 iso 1.0 1.0 500

run 300000
Generated 0 of 1 mixed pair_coeff terms from geometric mixing rule
Step          Temp          Press          PotEng        Density         KinEng         TotEng           Lx             Ly             Lz            Xlo            Xhi            Ylo            Yhi            Zlo            Zhi           Volume           Dt            Time           CPU           T/CPU          S/CPU         CPULeft
26710000   1391.8143      73.215775     -27476155       2.0491802      4144.5852     -27472011       625.44943      625.44943      625.44943      2187.2753      2812.7247      2187.2753      2812.7247      2187.2753      2812.7247      2.4466769e+08  0.5            13560000       0              0              0              0
Averages over the last 751 of 1501 rows, steps 26860000 to 27010000:
Temp Press PotEng Density KinEng TotEng Lx Ly Lz Xlo Xhi Ylo Yhi Zlo Zhi Volume Dt
300.27 0.845164 -2.75118e+07 2.05099 894.152 -2.75109e+07 625.266 625.266 625.266 2187.37 2812.63 2187.37 2812.63 2187.37 2812.63 2.44452e+08 0.5
Loop time of 19.6093 on 4 procs for 300000 steps with 1000 atoms

# run_style
run_style verlet

# write restart
write_restart ./pgnpmf/64/equpmf38.res
System init for write_restart ...
Generated 0 of 1 mixed pair_coeff terms from geometric mixing rule
