LAMMPS (23 Jun 2022 - Update 1)
# Read restart
read_restart ./pgnpmf/64/equpmf33.res
Reading restart file ...
  restart file = 23 Jun 2022, LAMMPS = 23 Jun 2022
  restoring atom style atomic from restart
  orthogonal box = (2186.8818 2186.8818 2186.8818) to (2813.1182 2813.1182 2813.1182)
  restoring pair style table from restart
  1000 atoms
  read_restart CPU = 0.007 seconds

# Settings

pair_style table spline 9941

pair_coeff 1 1 ./pgnpmf/N20.txt DE_GNP 75.6
pair_coeff 2 2 ./pgnpmf/N100.txt DE_GNP 115.92
pair_coeff 1 2 ./pgnpmf/mixed_potential.txt DE_GNP 95.66

#Neigh_list Calc Frequency

neigh_modify delay 0 every 1 check yes

# Saving Frequency (50 frames)

variable ts_save equal 5000

# Dump
#dump_modify 1 first no sort id
dump 2 all cfg 50000 ./pgnpmf/64/equilibration/trajectory/dumpgen.tens_*.cfg mass type xs ys zs fx fy fz
dump_modify 2 element N20 N100

# thermo_style
thermo_style custom step temp press pe density ke etotal lx ly lz xlo xhi ylo yhi zlo zhi vol dt time cpu tpcpu spcpu cpuremain

# run info
timestep 0.5
thermo 200

# fix

fix 1 all momentum 1000 linear 1 1 1 angular
variable T equal 300
fix 2 all nvt temp 300 370000 100.0

run 100000
Generated 0 of 1 mixed pair_coeff terms from geometric mixing rule
Unused restart file global fix info:
  fix style: npt, fix ID: 5
  update every 1 steps, delay 0 steps, check yes
Step          Temp          Press          PotEng        Density         KinEng         TotEng           Lx             Ly             Lz            Xlo            Xhi            Ylo            Yhi            Zlo            Zhi           Volume           Dt            Time           CPU           T/CPU          S/CPU         CPULeft
23510000   289.02121     -4.6680987     -27631219       2.0414654      860.65581     -27630359       626.23631      626.23631      626.23631      2186.8818      2813.1182      2186.8818      2813.1182      2186.8818      2813.1182      2.4559229e+08  0.5            11960000       0              0              0              0
Averages over the last 251 of 501 rows, steps 23560000 to 23610000:
Temp Press PotEng Density KinEng TotEng Lx Ly Lz Xlo Xhi Ylo Yhi Zlo Zhi Volume Dt
277167 2732.72 -2.67823e+07 2.04147 825356 -2.59569e+07 626.236 626.236 626.236 2186.88 2813.12 2186.88 2813.12 2186.88 2813.12 2.45592e+08 0.5
Loop time of 5.39575 on 4 procs for 100000 steps with 1000 atoms

unfix 2

fix 3 all nvt temp 370000 370000 $(100.0*dt) #iso 1.0 1.0 $(1000.0*dt)
fix 3 all nvt temp 370000 370000 50

run 200000
Generated 0 of 1 mixed pair_coeff terms from geometric mixing rule
Step          Temp          Press          PotEng        Density         KinEng         TotEng           Lx             Ly             Lz            Xlo            Xhi            Ylo            Yhi            Zlo            Zhi           Volume           Dt            Time           CPU           T/CPU          S/CPU         CPULeft
23610000   362008.36      3166.5047     -26576892       2.0414654      1077999.1     -25498893       626.23631      626.23631      626.23631      2186.8818      2813.1182      2186.8818      2813.1182      2186.8818      2813.1182      2.4559229e+08  0.5            12010000       0              0              0              0
Averages over the last 501 of 1001 rows, steps 23710000 to 23810000:
Temp Press PotEng Density KinEng TotEng Lx Ly Lz Xlo Xhi Ylo Yhi Zlo Zhi Volume Dt
369868 3125.42 -2.64357e+07 2.04147 1.1014e+06 -2.53343e+07 626.236 626.236 626.236 2186.88 2813.12 2186.88 2813.12 2186.88 2813.12 2.45592e+08 0.5
Loop time of 10.8394 on 4 procs for 200000 steps with 1000 atoms

unfix 3

fix 4 all nvt temp 370000 300 100.0

run 100000
Generated 0 of 1 mixed pair_coeff terms from geometric mixing rule
Step          Temp          Press          PotEng        Density         KinEng         TotEng           Lx             Ly             Lz            Xlo            Xhi            Ylo            Yhi            Zlo            Zhi           Volume           Dt            Time           CPU           T/CPU          S/CPU         CPULeft
23810000   372505.78      3147.2349     -26395984       2.0414654      1109258.6     -25286726       626.23631      626.23631      626.23631      2186.8818      2813.1182      2186.8818      2813.1182      2186.8818      2813.1182      2.4559229e+08  0.5            12110000       0              0              0              0
Averages over the last 251 of 501 rows, steps 23860000 to 23910000:
Temp Press PotEng Density KinEng TotEng Lx Ly Lz Xlo Xhi Ylo Yhi Zlo Zhi Volume Dt
93285.2 870.705 -2.72532e+07 2.04147 277787 -2.69754e+07 626.236 626.236 626.236 2186.88 2813.12 2186.88 2813.12 2186.88 2813.12 2.45592e+08 0.5
Loop time of 5.37222 on 4 procs for 100000 steps with 1000 atoms

unfix 4

fix 5 all npt temp 300 300 $(100.0*dt) iso 1.0 1.0 $(1000.0*dt)
fix 5 all npt temp 300 300 50 iso 1.0 1.0 $(1000.0*dt)
fix 5 all npt temp 300 300 50 iso 1.0 1.0 500

run 300000
Generated 0 of 1 mixed pair_coeff terms from geometric mixing rule
Step          Temp          Press          PotEng        Density         KinEng         TotEng           Lx             Ly             Lz            Xlo            Xhi            Ylo            Yhi            Zlo            Zhi           Volume           Dt            Time           CPU           T/CPU          S/CPU         CPULeft
23910000   1396.8119      59.015244     -27512863       2.0414654      4159.4672     -27508703       626.23631      626.23631      626.23631      2186.8818      2813.1182      2186.8818      2813.1182      2186.8818      2813.1182      2.4559229e+08  0.5            12160000       0              0              0              0
Averages over the last 751 of 1501 rows, steps 24060000 to 24210000:
Temp Press PotEng Density KinEng TotEng Lx Ly Lz Xlo Xhi Ylo Yhi Zlo Zhi Volume Dt
300.247 1.1333 -2.76112e+07 2.04306 894.086 -2.76103e+07 626.073 626.073 626.073 2186.96 2813.04 2186.96 2813.04 2186.96 2813.04 2.454e+08 0.5
Loop time of 18.8807 on 4 procs for 300000 steps with 1000 atoms

# run_style
run_style verlet

# write restart
write_restart ./pgnpmf/64/equpmf34.res
System init for write_restart ...
Generated 0 of 1 mixed pair_coeff terms from geometric mixing rule
