LAMMPS (23 Jun 2022 - Update 1)
# Read restart
read_restart ./pgnpmf/64/equpmf30.res
Reading restart file ...
  restart file = 23 Jun 2022, LAMMPS = 23 Jun 2022
  restoring atom style atomic from restart
  orthogonal box = (2186.4018 2186.4018 2186.4018) to (2813.5982 2813.5982 2813.5982)
  restoring pair style table from restart
  1000 atoms
  read_restart CPU = 0.008 seconds

# Settings

pair_style table spline 9941

pair_coeff 1 1 ./pgnpmf/N20.txt DE_GNP 75.6
pair_coeff 2 2 ./pgnpmf/N100.txt DE_GNP 115.92
pair_coeff 1 2 ./pgnpmf/mixed_potential.txt DE_GNP 95.66

#Neigh_list Calc Frequency

neigh_modify delay 0 every 1 check yes

# Saving Frequency (50 frames)

variable ts_save equal 5000

# Dump
#dump_modify 1 first no sort id
dump 2 all cfg 50000 ./pgnpmf/64/equilibration/trajectory/dumpgen.tens_*.cfg mass type xs ys zs fx fy fz
dump_modify 2 element N20 N100

# thermo_style
thermo_style custom step temp press pe density ke etotal lx ly lz xlo xhi ylo yhi zlo zhi vol dt time cpu tpcpu spcpu cpuremain

# run info
timestep 0.5
thermo 200

# fix

fix 1 all momentum 1000 linear 1 1 1 angular
variable T equal 300
fix 2 all nvt temp 300 370000 100.0

run 100000
Generated 0 of 1 mixed pair_coeff terms from geometric mixing rule
Unused restart file global fix info:
  fix style: npt, fix ID: 5
  update every 1 steps, delay 0 steps, check yes
Step          Temp          Press          PotEng        Density         KinEng         TotEng           Lx             Ly             Lz            Xlo            Xhi            Ylo            Yhi            Zlo            Zhi           Volume           Dt            Time           CPU           T/CPU          S/CPU         CPULeft
21410000   308.66525      8.593567      -27460084       2.032105       919.15242     -27459165       627.19637      627.19637      627.19637      2186.4018      2813.5982      2186.4018      2813.5982      2186.4018      2813.5982      2.4672355e+08  0.5            10910000       0              0              0              0
Averages over the last 251 of 501 rows, steps 21460000 to 21510000:
Temp Press PotEng Density KinEng TotEng Lx Ly Lz Xlo Xhi Ylo Yhi Zlo Zhi Volume Dt
277555 2652.23 -2.66312e+07 2.03211 826511 -2.58047e+07 627.196 627.196 627.196 2186.4 2813.6 2186.4 2813.6 2186.4 2813.6 2.46724e+08 0.5
Loop time of 5.44573 on 4 procs for 100000 steps with 1000 atoms

unfix 2

fix 3 all nvt temp 370000 370000 $(100.0*dt) #iso 1.0 1.0 $(1000.0*dt)
fix 3 all nvt temp 370000 370000 50

run 200000
Generated 0 of 1 mixed pair_coeff terms from geometric mixing rule
Step          Temp          Press          PotEng        Density         KinEng         TotEng           Lx             Ly             Lz            Xlo            Xhi            Ylo            Yhi            Zlo            Zhi           Volume           Dt            Time           CPU           T/CPU          S/CPU         CPULeft
21510000   369518.02      3302.9839     -26370856       2.032105       1100361.6     -25270494       627.19637      627.19637      627.19637      2186.4018      2813.5982      2186.4018      2813.5982      2186.4018      2813.5982      2.4672355e+08  0.5            10960000       0              0              0              0
Averages over the last 501 of 1001 rows, steps 21610000 to 21710000:
Temp Press PotEng Density KinEng TotEng Lx Ly Lz Xlo Xhi Ylo Yhi Zlo Zhi Volume Dt
370065 3148.82 -2.63877e+07 2.03211 1.10199e+06 -2.52857e+07 627.196 627.196 627.196 2186.4 2813.6 2186.4 2813.6 2186.4 2813.6 2.46724e+08 0.5
Loop time of 10.9935 on 4 procs for 200000 steps with 1000 atoms

unfix 3

fix 4 all nvt temp 370000 300 100.0

run 100000
Generated 0 of 1 mixed pair_coeff terms from geometric mixing rule
Step          Temp          Press          PotEng        Density         KinEng         TotEng           Lx             Ly             Lz            Xlo            Xhi            Ylo            Yhi            Zlo            Zhi           Volume           Dt            Time           CPU           T/CPU          S/CPU         CPULeft
21710000   351090.11      3186.2548     -26340188       2.032105       1045486.4     -25294702       627.19637      627.19637      627.19637      2186.4018      2813.5982      2186.4018      2813.5982      2186.4018      2813.5982      2.4672355e+08  0.5            11060000       0              0              0              0
Averages over the last 251 of 501 rows, steps 21760000 to 21810000:
Temp Press PotEng Density KinEng TotEng Lx Ly Lz Xlo Xhi Ylo Yhi Zlo Zhi Volume Dt
92972.3 799.014 -2.71429e+07 2.03211 276856 -2.68661e+07 627.196 627.196 627.196 2186.4 2813.6 2186.4 2813.6 2186.4 2813.6 2.46724e+08 0.5
Loop time of 5.52723 on 4 procs for 100000 steps with 1000 atoms

unfix 4

fix 5 all npt temp 300 300 $(100.0*dt) iso 1.0 1.0 $(1000.0*dt)
fix 5 all npt temp 300 300 50 iso 1.0 1.0 $(1000.0*dt)
fix 5 all npt temp 300 300 50 iso 1.0 1.0 500

run 300000
Generated 0 of 1 mixed pair_coeff terms from geometric mixing rule
Step          Temp          Press          PotEng        Density         KinEng         TotEng           Lx             Ly             Lz            Xlo            Xhi            Ylo            Yhi            Zlo            Zhi           Volume           Dt            Time           CPU           T/CPU          S/CPU         CPULeft
21810000   1403.6802      16.614023     -27376369       2.032105       4179.92       -27372189       627.19637      627.19637      627.19637      2186.4018      2813.5982      2186.4018      2813.5982      2186.4018      2813.5982      2.4672355e+08  0.5            11110000       0              0              0              0
Averages over the last 751 of 1501 rows, steps 21960000 to 22110000:
Temp Press PotEng Density KinEng TotEng Lx Ly Lz Xlo Xhi Ylo Yhi Zlo Zhi Volume Dt
300.261 0.721946 -2.74537e+07 2.0364 894.127 -2.74528e+07 626.755 626.755 626.755 2186.62 2813.38 2186.62 2813.38 2186.62 2813.38 2.46203e+08 0.5
Loop time of 19.7251 on 4 procs for 300000 steps with 1000 atoms

# run_style
run_style verlet

# write restart
write_restart ./pgnpmf/64/equpmf31.res
System init for write_restart ...
Generated 0 of 1 mixed pair_coeff terms from geometric mixing rule
