LAMMPS (23 Jun 2022 - Update 1)
# Read restart
read_restart ./pgnpmf/64/equpmf35.res
Reading restart file ...
  restart file = 23 Jun 2022, LAMMPS = 23 Jun 2022
  restoring atom style atomic from restart
  orthogonal box = (2186.9995 2186.9995 2186.9995) to (2813.0005 2813.0005 2813.0005)
  restoring pair style table from restart
  1000 atoms
  read_restart CPU = 0.007 seconds

# Settings

pair_style table spline 9941

pair_coeff 1 1 ./pgnpmf/N20.txt DE_GNP 75.6
pair_coeff 2 2 ./pgnpmf/N100.txt DE_GNP 115.92
pair_coeff 1 2 ./pgnpmf/mixed_potential.txt DE_GNP 95.66

#Neigh_list Calc Frequency

neigh_modify delay 0 every 1 check yes

# Saving Frequency (50 frames)

variable ts_save equal 5000

# Dump
#dump_modify 1 first no sort id
dump 2 all cfg 50000 ./pgnpmf/64/equilibration/trajectory/dumpgen.tens_*.cfg mass type xs ys zs fx fy fz
dump_modify 2 element N20 N100

# thermo_style
thermo_style custom step temp press pe density ke etotal lx ly lz xlo xhi ylo yhi zlo zhi vol dt time cpu tpcpu spcpu cpuremain

# run info
timestep 0.5
thermo 200

# fix

fix 1 all momentum 1000 linear 1 1 1 angular
variable T equal 300
fix 2 all nvt temp 300 370000 100.0

run 100000
Generated 0 of 1 mixed pair_coeff terms from geometric mixing rule
Unused restart file global fix info:
  fix style: npt, fix ID: 5
  update every 1 steps, delay 0 steps, check yes
Step          Temp          Press          PotEng        Density         KinEng         TotEng           Lx             Ly             Lz            Xlo            Xhi            Ylo            Yhi            Zlo            Zhi           Volume           Dt            Time           CPU           T/CPU          S/CPU         CPULeft
24910000   299.27138      2.7806731     -27528287       2.0437683      891.17905     -27527396       626.00102      626.00102      626.00102      2186.9995      2813.0005      2186.9995      2813.0005      2186.9995      2813.0005      2.4531557e+08  0.5            12660000       0              0              0              0
Averages over the last 251 of 501 rows, steps 24960000 to 25010000:
Temp Press PotEng Density KinEng TotEng Lx Ly Lz Xlo Xhi Ylo Yhi Zlo Zhi Volume Dt
277516 2620.92 -2.68124e+07 2.04377 826396 -2.5986e+07 626.001 626.001 626.001 2187 2813 2187 2813 2187 2813 2.45316e+08 0.5
Loop time of 5.54562 on 4 procs for 100000 steps with 1000 atoms

unfix 2

fix 3 all nvt temp 370000 370000 $(100.0*dt) #iso 1.0 1.0 $(1000.0*dt)
fix 3 all nvt temp 370000 370000 50

run 200000
Generated 0 of 1 mixed pair_coeff terms from geometric mixing rule
Step          Temp          Press          PotEng        Density         KinEng         TotEng           Lx             Ly             Lz            Xlo            Xhi            Ylo            Yhi            Zlo            Zhi           Volume           Dt            Time           CPU           T/CPU          S/CPU         CPULeft
25010000   376687.35      3182.3639     -26564578       2.0437683      1121710.6     -25442867       626.00102      626.00102      626.00102      2186.9995      2813.0005      2186.9995      2813.0005      2186.9995      2813.0005      2.4531557e+08  0.5            12710000       0              0              0              0
Averages over the last 501 of 1001 rows, steps 25110000 to 25210000:
Temp Press PotEng Density KinEng TotEng Lx Ly Lz Xlo Xhi Ylo Yhi Zlo Zhi Volume Dt
370215 3116.48 -2.64516e+07 2.04377 1.10244e+06 -2.53492e+07 626.001 626.001 626.001 2187 2813 2187 2813 2187 2813 2.45316e+08 0.5
Loop time of 11.1366 on 4 procs for 200000 steps with 1000 atoms

unfix 3

fix 4 all nvt temp 370000 300 100.0

run 100000
Generated 0 of 1 mixed pair_coeff terms from geometric mixing rule
Step          Temp          Press          PotEng        Density         KinEng         TotEng           Lx             Ly             Lz            Xlo            Xhi            Ylo            Yhi            Zlo            Zhi           Volume           Dt            Time           CPU           T/CPU          S/CPU         CPULeft
25210000   377581.81      3136.9662     -26375780       2.0437683      1124374.2     -25251406       626.00102      626.00102      626.00102      2186.9995      2813.0005      2186.9995      2813.0005      2186.9995      2813.0005      2.4531557e+08  0.5            12810000       0              0              0              0
Averages over the last 251 of 501 rows, steps 25260000 to 25310000:
Temp Press PotEng Density KinEng TotEng Lx Ly Lz Xlo Xhi Ylo Yhi Zlo Zhi Volume Dt
92993.2 852.717 -2.71484e+07 2.04377 276918 -2.68715e+07 626.001 626.001 626.001 2187 2813 2187 2813 2187 2813 2.45316e+08 0.5
Loop time of 5.53701 on 4 procs for 100000 steps with 1000 atoms

unfix 4

fix 5 all npt temp 300 300 $(100.0*dt) iso 1.0 1.0 $(1000.0*dt)
fix 5 all npt temp 300 300 50 iso 1.0 1.0 $(1000.0*dt)
fix 5 all npt temp 300 300 50 iso 1.0 1.0 500

run 300000
Generated 0 of 1 mixed pair_coeff terms from geometric mixing rule
Step          Temp          Press          PotEng        Density         KinEng         TotEng           Lx             Ly             Lz            Xlo            Xhi            Ylo            Yhi            Zlo            Zhi           Volume           Dt            Time           CPU           T/CPU          S/CPU         CPULeft
25310000   1385.2259      30.470408     -27377397       2.0437683      4124.966      -27373272       626.00102      626.00102      626.00102      2186.9995      2813.0005      2186.9995      2813.0005      2186.9995      2813.0005      2.4531557e+08  0.5            12860000       0              0              0              0
Averages over the last 751 of 1501 rows, steps 25460000 to 25610000:
Temp Press PotEng Density KinEng TotEng Lx Ly Lz Xlo Xhi Ylo Yhi Zlo Zhi Volume Dt
300.371 0.954632 -2.75614e+07 2.04839 894.455 -2.75605e+07 625.529 625.529 625.529 2187.24 2812.76 2187.24 2812.76 2187.24 2812.76 2.44762e+08 0.5
Loop time of 19.3529 on 4 procs for 300000 steps with 1000 atoms

# run_style
run_style verlet

# write restart
write_restart ./pgnpmf/64/equpmf36.res
System init for write_restart ...
Generated 0 of 1 mixed pair_coeff terms from geometric mixing rule
