LAMMPS (23 Jun 2022 - Update 1)
# Read restart
read_restart ./pgnpmf/64/equpmf52.res
Reading restart file ...
  restart file = 23 Jun 2022, LAMMPS = 23 Jun 2022
  restoring atom style atomic from restart
  orthogonal box = (2187.6403 2187.6403 2187.6403) to (2812.3597 2812.3597 2812.3597)
  restoring pair style table from restart
  1000 atoms
  read_restart CPU = 0.009 seconds

# Settings

pair_style table spline 9941

pair_coeff 1 1 ./pgnpmf/N20.txt DE_GNP 75.6
pair_coeff 2 2 ./pgnpmf/N100.txt DE_GNP 115.92
pair_coeff 1 2 ./pgnpmf/mixed_potential.txt DE_GNP 95.66

#Neigh_list Calc Frequency

neigh_modify delay 0 every 1 check yes

# Saving Frequency (50 frames)

variable ts_save equal 5000

# Dump
#dump_modify 1 first no sort id
dump 2 all cfg 50000 ./pgnpmf/64/equilibration/trajectory/dumpgen.tens_*.cfg mass type xs ys zs fx fy fz
dump_modify 2 element N20 N100

# thermo_style
thermo_style custom step temp press pe density ke etotal lx ly lz xlo xhi ylo yhi zlo zhi vol dt time cpu tpcpu spcpu cpuremain

# run info
timestep 0.5
thermo 200

# fix

fix 1 all momentum 1000 linear 1 1 1 angular
variable T equal 300
fix 2 all nvt temp 300 370000 100.0

run 100000
Generated 0 of 1 mixed pair_coeff terms from geometric mixing rule
Unused restart file global fix info:
  fix style: npt, fix ID: 5
  update every 1 steps, delay 0 steps, check yes
Step          Temp          Press          PotEng        Density         KinEng         TotEng           Lx             Ly             Lz            Xlo            Xhi            Ylo            Yhi            Zlo            Zhi           Volume           Dt            Time           CPU           T/CPU          S/CPU         CPULeft
36810000   294.15333     -7.3460313     -27656771       2.0563729      875.93838     -27655895       624.71936      624.71936      624.71936      2187.6403      2812.3597      2187.6403      2812.3597      2187.6403      2812.3597      2.438119e+08   0.5            18610000       0              0              0              0
Averages over the last 251 of 501 rows, steps 36860000 to 36910000:
Temp Press PotEng Density KinEng TotEng Lx Ly Lz Xlo Xhi Ylo Yhi Zlo Zhi Volume Dt
277570 2536.75 -2.68241e+07 2.05637 826557 -2.59975e+07 624.719 624.719 624.719 2187.64 2812.36 2187.64 2812.36 2187.64 2812.36 2.43812e+08 0.5
Loop time of 5.51115 on 4 procs for 100000 steps with 1000 atoms

unfix 2

fix 3 all nvt temp 370000 370000 $(100.0*dt) #iso 1.0 1.0 $(1000.0*dt)
fix 3 all nvt temp 370000 370000 50

run 200000
Generated 0 of 1 mixed pair_coeff terms from geometric mixing rule
Step          Temp          Press          PotEng        Density         KinEng         TotEng           Lx             Ly             Lz            Xlo            Xhi            Ylo            Yhi            Zlo            Zhi           Volume           Dt            Time           CPU           T/CPU          S/CPU         CPULeft
36910000   365709.74      3076.2184     -26568467       2.0563729      1089021.2     -25479445       624.71936      624.71936      624.71936      2187.6403      2812.3597      2187.6403      2812.3597      2187.6403      2812.3597      2.438119e+08   0.5            18660000       0              0              0              0
Averages over the last 501 of 1001 rows, steps 37010000 to 37110000:
Temp Press PotEng Density KinEng TotEng Lx Ly Lz Xlo Xhi Ylo Yhi Zlo Zhi Volume Dt
369968 3137.32 -2.65411e+07 2.05637 1.1017e+06 -2.54394e+07 624.719 624.719 624.719 2187.64 2812.36 2187.64 2812.36 2187.64 2812.36 2.43812e+08 0.5
Loop time of 11.0167 on 4 procs for 200000 steps with 1000 atoms

unfix 3

fix 4 all nvt temp 370000 300 100.0

run 100000
Generated 0 of 1 mixed pair_coeff terms from geometric mixing rule
Step          Temp          Press          PotEng        Density         KinEng         TotEng           Lx             Ly             Lz            Xlo            Xhi            Ylo            Yhi            Zlo            Zhi           Volume           Dt            Time           CPU           T/CPU          S/CPU         CPULeft
37110000   362246.03      3063.8195     -26671243       2.0563729      1078706.8     -25592536       624.71936      624.71936      624.71936      2187.6403      2812.3597      2187.6403      2812.3597      2187.6403      2812.3597      2.438119e+08   0.5            18760000       0              0              0              0
Averages over the last 251 of 501 rows, steps 37160000 to 37210000:
Temp Press PotEng Density KinEng TotEng Lx Ly Lz Xlo Xhi Ylo Yhi Zlo Zhi Volume Dt
92958.8 832.415 -2.72523e+07 2.05637 276815 -2.69755e+07 624.719 624.719 624.719 2187.64 2812.36 2187.64 2812.36 2187.64 2812.36 2.43812e+08 0.5
Loop time of 5.49646 on 4 procs for 100000 steps with 1000 atoms

unfix 4

fix 5 all npt temp 300 300 $(100.0*dt) iso 1.0 1.0 $(1000.0*dt)
fix 5 all npt temp 300 300 50 iso 1.0 1.0 $(1000.0*dt)
fix 5 all npt temp 300 300 50 iso 1.0 1.0 500

run 300000
Generated 0 of 1 mixed pair_coeff terms from geometric mixing rule
Step          Temp          Press          PotEng        Density         KinEng         TotEng           Lx             Ly             Lz            Xlo            Xhi            Ylo            Yhi            Zlo            Zhi           Volume           Dt            Time           CPU           T/CPU          S/CPU         CPULeft
37210000   1385.4986      2.8537065     -27532042       2.0563729      4125.7781     -27527917       624.71936      624.71936      624.71936      2187.6403      2812.3597      2187.6403      2812.3597      2187.6403      2812.3597      2.438119e+08   0.5            18810000       0              0              0              0
Averages over the last 751 of 1501 rows, steps 37360000 to 37510000:
Temp Press PotEng Density KinEng TotEng Lx Ly Lz Xlo Xhi Ylo Yhi Zlo Zhi Volume Dt
300.135 0.803081 -2.76157e+07 2.059 893.75 -2.76148e+07 624.453 624.453 624.453 2187.77 2812.23 2187.77 2812.23 2187.77 2812.23 2.435e+08 0.5
Loop time of 19.1498 on 4 procs for 300000 steps with 1000 atoms

# run_style
run_style verlet

# write restart
write_restart ./pgnpmf/64/equpmf53.res
System init for write_restart ...
Generated 0 of 1 mixed pair_coeff terms from geometric mixing rule
