LAMMPS (23 Jun 2022 - Update 1)
# Read restart
read_restart ./pgnpmf/64/equpmf61.res
Reading restart file ...
  restart file = 23 Jun 2022, LAMMPS = 23 Jun 2022
  restoring atom style atomic from restart
  orthogonal box = (2187.7206 2187.7206 2187.7206) to (2812.2794 2812.2794 2812.2794)
  restoring pair style table from restart
  1000 atoms
  read_restart CPU = 0.008 seconds

# Settings

pair_style table spline 9941

pair_coeff 1 1 ./pgnpmf/N20.txt DE_GNP 75.6
pair_coeff 2 2 ./pgnpmf/N100.txt DE_GNP 115.92
pair_coeff 1 2 ./pgnpmf/mixed_potential.txt DE_GNP 95.66

#Neigh_list Calc Frequency

neigh_modify delay 0 every 1 check yes

# Saving Frequency (50 frames)

variable ts_save equal 5000

# Dump
#dump_modify 1 first no sort id
dump 2 all cfg 50000 ./pgnpmf/64/equilibration/trajectory/dumpgen.tens_*.cfg mass type xs ys zs fx fy fz
dump_modify 2 element N20 N100

# thermo_style
thermo_style custom step temp press pe density ke etotal lx ly lz xlo xhi ylo yhi zlo zhi vol dt time cpu tpcpu spcpu cpuremain

# run info
timestep 0.5
thermo 200

# fix

fix 1 all momentum 1000 linear 1 1 1 angular
variable T equal 300
fix 2 all nvt temp 300 370000 100.0

run 100000
Generated 0 of 1 mixed pair_coeff terms from geometric mixing rule
Unused restart file global fix info:
  fix style: npt, fix ID: 5
  update every 1 steps, delay 0 steps, check yes
Step          Temp          Press          PotEng        Density         KinEng         TotEng           Lx             Ly             Lz            Xlo            Xhi            Ylo            Yhi            Zlo            Zhi           Volume           Dt            Time           CPU           T/CPU          S/CPU         CPULeft
43110000   296.66573     -0.9945821     -27567349       2.0579588      883.41989     -27566466       624.55884      624.55884      624.55884      2187.7206      2812.2794      2187.7206      2812.2794      2187.7206      2812.2794      2.4362401e+08  0.5            21760000       0              0              0              0
Averages over the last 251 of 501 rows, steps 43160000 to 43210000:
Temp Press PotEng Density KinEng TotEng Lx Ly Lz Xlo Xhi Ylo Yhi Zlo Zhi Volume Dt
277492 2706.05 -2.68442e+07 2.05796 826323 -2.60179e+07 624.559 624.559 624.559 2187.72 2812.28 2187.72 2812.28 2187.72 2812.28 2.43624e+08 0.5
Loop time of 5.6149 on 4 procs for 100000 steps with 1000 atoms

unfix 2

fix 3 all nvt temp 370000 370000 $(100.0*dt) #iso 1.0 1.0 $(1000.0*dt)
fix 3 all nvt temp 370000 370000 50

run 200000
Generated 0 of 1 mixed pair_coeff terms from geometric mixing rule
Step          Temp          Press          PotEng        Density         KinEng         TotEng           Lx             Ly             Lz            Xlo            Xhi            Ylo            Yhi            Zlo            Zhi           Volume           Dt            Time           CPU           T/CPU          S/CPU         CPULeft
43210000   365280.35      3317.1224     -26565916       2.0579588      1087742.5     -25478174       624.55884      624.55884      624.55884      2187.7206      2812.2794      2187.7206      2812.2794      2187.7206      2812.2794      2.4362401e+08  0.5            21810000       0              0              0              0
Averages over the last 501 of 1001 rows, steps 43310000 to 43410000:
Temp Press PotEng Density KinEng TotEng Lx Ly Lz Xlo Xhi Ylo Yhi Zlo Zhi Volume Dt
369978 3196.55 -2.65462e+07 2.05796 1.10173e+06 -2.54445e+07 624.559 624.559 624.559 2187.72 2812.28 2187.72 2812.28 2187.72 2812.28 2.43624e+08 0.5
Loop time of 11.3684 on 4 procs for 200000 steps with 1000 atoms

unfix 3

fix 4 all nvt temp 370000 300 100.0

run 100000
Generated 0 of 1 mixed pair_coeff terms from geometric mixing rule
Step          Temp          Press          PotEng        Density         KinEng         TotEng           Lx             Ly             Lz            Xlo            Xhi            Ylo            Yhi            Zlo            Zhi           Volume           Dt            Time           CPU           T/CPU          S/CPU         CPULeft
43410000   369719.6       3262.2739     -26601070       2.0579588      1100961.8     -25500108       624.55884      624.55884      624.55884      2187.7206      2812.2794      2187.7206      2812.2794      2187.7206      2812.2794      2.4362401e+08  0.5            21910000       0              0              0              0
Averages over the last 251 of 501 rows, steps 43460000 to 43510000:
Temp Press PotEng Density KinEng TotEng Lx Ly Lz Xlo Xhi Ylo Yhi Zlo Zhi Volume Dt
93165.3 927.786 -2.72749e+07 2.05796 277430 -2.69975e+07 624.559 624.559 624.559 2187.72 2812.28 2187.72 2812.28 2187.72 2812.28 2.43624e+08 0.5
Loop time of 5.61366 on 4 procs for 100000 steps with 1000 atoms

unfix 4

fix 5 all npt temp 300 300 $(100.0*dt) iso 1.0 1.0 $(1000.0*dt)
fix 5 all npt temp 300 300 50 iso 1.0 1.0 $(1000.0*dt)
fix 5 all npt temp 300 300 50 iso 1.0 1.0 500

run 300000
Generated 0 of 1 mixed pair_coeff terms from geometric mixing rule
Step          Temp          Press          PotEng        Density         KinEng         TotEng           Lx             Ly             Lz            Xlo            Xhi            Ylo            Yhi            Zlo            Zhi           Volume           Dt            Time           CPU           T/CPU          S/CPU         CPULeft
43510000   1374.3666      93.481629     -27614613       2.0579588      4092.6291     -27610520       624.55884      624.55884      624.55884      2187.7206      2812.2794      2187.7206      2812.2794      2187.7206      2812.2794      2.4362401e+08  0.5            21960000       0              0              0              0
Averages over the last 751 of 1501 rows, steps 43660000 to 43810000:
Temp Press PotEng Density KinEng TotEng Lx Ly Lz Xlo Xhi Ylo Yhi Zlo Zhi Volume Dt
300.205 1.04417 -2.7629e+07 2.05832 893.96 -2.76281e+07 624.522 624.522 624.522 2187.74 2812.26 2187.74 2812.26 2187.74 2812.26 2.43581e+08 0.5
Loop time of 19.8113 on 4 procs for 300000 steps with 1000 atoms

# run_style
run_style verlet

# write restart
write_restart ./pgnpmf/64/equpmf62.res
System init for write_restart ...
Generated 0 of 1 mixed pair_coeff terms from geometric mixing rule
