LAMMPS (23 Jun 2022 - Update 1)
# Read restart
read_restart ./pgnpmf/64/equpmf6.res
Reading restart file ...
  restart file = 23 Jun 2022, LAMMPS = 23 Jun 2022
  restoring atom style atomic from restart
  orthogonal box = (1929.6863 1929.6863 1929.6863) to (3070.3137 3070.3137 3070.3137)
  restoring pair style table from restart
  1000 atoms
  read_restart CPU = 0.007 seconds

# Settings

pair_style table spline 9941

pair_coeff 1 1 ./pgnpmf/N20.txt DE_GNP 75.6
pair_coeff 2 2 ./pgnpmf/N100.txt DE_GNP 115.92
pair_coeff 1 2 ./pgnpmf/mixed_potential.txt DE_GNP 95.66

#Neigh_list Calc Frequency

neigh_modify delay 0 every 1 check yes

# Saving Frequency (50 frames)

variable ts_save equal 5000

# Dump
#dump_modify 1 first no sort id
dump 2 all cfg 50000 ./pgnpmf/64/equilibration/trajectory/dumpgen.tens_*.cfg mass type xs ys zs fx fy fz
dump_modify 2 element N20 N100

# thermo_style
thermo_style custom step temp press pe density ke etotal lx ly lz xlo xhi ylo yhi zlo zhi vol dt time cpu tpcpu spcpu cpuremain

# run info
timestep 0.5
thermo 200

# fix

fix 1 all momentum 1000 linear 1 1 1 angular
variable T equal 300
fix 2 all nvt temp 300 370000 100.0

run 100000
Generated 0 of 1 mixed pair_coeff terms from geometric mixing rule
Unused restart file global fix info:
  fix style: npt, fix ID: 5
  update every 1 steps, delay 0 steps, check yes
Step          Temp          Press          PotEng        Density         KinEng         TotEng           Lx             Ly             Lz            Xlo            Xhi            Ylo            Yhi            Zlo            Zhi           Volume           Dt            Time           CPU           T/CPU          S/CPU         CPULeft
4610000   311.63245      0.67150165    -9164048.9      0.33785116     927.98821     -9163120.9      1140.6274      1140.6274      1140.6274      1929.6863      3070.3137      1929.6863      3070.3137      1929.6863      3070.3137      1.4839913e+09  0.5            2510000        0              0              0              0
Averages over the last 251 of 501 rows, steps 4660000 to 4710000:
Temp Press PotEng Density KinEng TotEng Lx Ly Lz Xlo Xhi Ylo Yhi Zlo Zhi Volume Dt
277549 13.5794 -9.1762e+06 0.337851 826493 -8.34971e+06 1140.63 1140.63 1140.63 1929.69 3070.31 1929.69 3070.31 1929.69 3070.31 1.48399e+09 0.5
Loop time of 2.60432 on 4 procs for 100000 steps with 1000 atoms

unfix 2

fix 3 all nvt temp 370000 370000 $(100.0*dt) #iso 1.0 1.0 $(1000.0*dt)
fix 3 all nvt temp 370000 370000 50

run 200000
Generated 0 of 1 mixed pair_coeff terms from geometric mixing rule
Step          Temp          Press          PotEng        Density         KinEng         TotEng           Lx             Ly             Lz            Xlo            Xhi            Ylo            Yhi            Zlo            Zhi           Volume           Dt            Time           CPU           T/CPU          S/CPU         CPULeft
4710000   382060.96      12.916096     -8954440.8      0.33785116     1137712.3     -7816728.5      1140.6274      1140.6274      1140.6274      1929.6863      3070.3137      1929.6863      3070.3137      1929.6863      3070.3137      1.4839913e+09  0.5            2560000        0              0              0              0
Averages over the last 501 of 1001 rows, steps 4810000 to 4910000:
Temp Press PotEng Density KinEng TotEng Lx Ly Lz Xlo Xhi Ylo Yhi Zlo Zhi Volume Dt
369850 18.1398 -8.94963e+06 0.337851 1.10135e+06 -7.84827e+06 1140.63 1140.63 1140.63 1929.69 3070.31 1929.69 3070.31 1929.69 3070.31 1.48399e+09 0.5
Loop time of 4.99701 on 4 procs for 200000 steps with 1000 atoms

unfix 3

fix 4 all nvt temp 370000 300 100.0

run 100000
Generated 0 of 1 mixed pair_coeff terms from geometric mixing rule
Step          Temp          Press          PotEng        Density         KinEng         TotEng           Lx             Ly             Lz            Xlo            Xhi            Ylo            Yhi            Zlo            Zhi           Volume           Dt            Time           CPU           T/CPU          S/CPU         CPULeft
4910000   368401.78      9.8841153     -9016035.5      0.33785116     1097037.6     -7918997.9      1140.6274      1140.6274      1140.6274      1929.6863      3070.3137      1929.6863      3070.3137      1929.6863      3070.3137      1.4839913e+09  0.5            2660000        0              0              0              0
Averages over the last 251 of 501 rows, steps 4960000 to 5010000:
Temp Press PotEng Density KinEng TotEng Lx Ly Lz Xlo Xhi Ylo Yhi Zlo Zhi Volume Dt
93094.6 -31.1294 -9.96279e+06 0.337851 277220 -9.68557e+06 1140.63 1140.63 1140.63 1929.69 3070.31 1929.69 3070.31 1929.69 3070.31 1.48399e+09 0.5
Loop time of 2.48907 on 4 procs for 100000 steps with 1000 atoms

unfix 4

fix 5 all npt temp 300 300 $(100.0*dt) iso 1.0 1.0 $(1000.0*dt)
fix 5 all npt temp 300 300 50 iso 1.0 1.0 $(1000.0*dt)
fix 5 all npt temp 300 300 50 iso 1.0 1.0 500

run 300000
Generated 0 of 1 mixed pair_coeff terms from geometric mixing rule
Step          Temp          Press          PotEng        Density         KinEng         TotEng           Lx             Ly             Lz            Xlo            Xhi            Ylo            Yhi            Zlo            Zhi           Volume           Dt            Time           CPU           T/CPU          S/CPU         CPULeft
5010000   1368.5773     -52.672752     -10411254       0.33785116     4075.3894     -10407178       1140.6274      1140.6274      1140.6274      1929.6863      3070.3137      1929.6863      3070.3137      1929.6863      3070.3137      1.4839913e+09  0.5            2710000        0              0              0              0
Averages over the last 751 of 1501 rows, steps 5160000 to 5310000:
Temp Press PotEng Density KinEng TotEng Lx Ly Lz Xlo Xhi Ylo Yhi Zlo Zhi Volume Dt
315.531 0.991237 -1.10847e+07 0.386221 939.597 -1.10838e+07 1090.95 1090.95 1090.95 1954.52 3045.48 1954.52 3045.48 1954.52 3045.48 1.29857e+09 0.5
Loop time of 10.5339 on 4 procs for 300000 steps with 1000 atoms

# run_style
run_style verlet

# write restart
write_restart ./pgnpmf/64/equpmf7.res
System init for write_restart ...
Generated 0 of 1 mixed pair_coeff terms from geometric mixing rule
