LAMMPS (23 Jun 2022 - Update 1)
# Read restart
read_restart ./pgnpmf/64/equpmf16.res
Reading restart file ...
  restart file = 23 Jun 2022, LAMMPS = 23 Jun 2022
  restoring atom style atomic from restart
  orthogonal box = (2080.4856 2080.4856 2080.4856) to (2919.5144 2919.5144 2919.5144)
  restoring pair style table from restart
  1000 atoms
  read_restart CPU = 0.007 seconds

# Settings

pair_style table spline 9941

pair_coeff 1 1 ./pgnpmf/N20.txt DE_GNP 75.6
pair_coeff 2 2 ./pgnpmf/N100.txt DE_GNP 115.92
pair_coeff 1 2 ./pgnpmf/mixed_potential.txt DE_GNP 95.66

#Neigh_list Calc Frequency

neigh_modify delay 0 every 1 check yes

# Saving Frequency (50 frames)

variable ts_save equal 5000

# Dump
#dump_modify 1 first no sort id
dump 2 all cfg 50000 ./pgnpmf/64/equilibration/trajectory/dumpgen.tens_*.cfg mass type xs ys zs fx fy fz
dump_modify 2 element N20 N100

# thermo_style
thermo_style custom step temp press pe density ke etotal lx ly lz xlo xhi ylo yhi zlo zhi vol dt time cpu tpcpu spcpu cpuremain

# run info
timestep 0.5
thermo 200

# fix

fix 1 all momentum 1000 linear 1 1 1 angular
variable T equal 300
fix 2 all nvt temp 300 370000 100.0

run 100000
Generated 0 of 1 mixed pair_coeff terms from geometric mixing rule
Unused restart file global fix info:
  fix style: npt, fix ID: 5
  update every 1 steps, delay 0 steps, check yes
Step          Temp          Press          PotEng        Density         KinEng         TotEng           Lx             Ly             Lz            Xlo            Xhi            Ylo            Yhi            Zlo            Zhi           Volume           Dt            Time           CPU           T/CPU          S/CPU         CPULeft
11610000   310.64503      2.1037167     -21236136       0.84884048     925.04785     -21235211       839.02885      839.02885      839.02885      2080.4856      2919.5144      2080.4856      2919.5144      2080.4856      2919.5144      5.9065064e+08  0.5            6010000        0              0              0              0
Averages over the last 251 of 501 rows, steps 11660000 to 11710000:
Temp Press PotEng Density KinEng TotEng Lx Ly Lz Xlo Xhi Ylo Yhi Zlo Zhi Volume Dt
277284 52.1486 -2.09903e+07 0.84884 825704 -2.01646e+07 839.029 839.029 839.029 2080.49 2919.51 2080.49 2919.51 2080.49 2919.51 5.90651e+08 0.5
Loop time of 4.09334 on 4 procs for 100000 steps with 1000 atoms

unfix 2

fix 3 all nvt temp 370000 370000 $(100.0*dt) #iso 1.0 1.0 $(1000.0*dt)
fix 3 all nvt temp 370000 370000 50

run 200000
Generated 0 of 1 mixed pair_coeff terms from geometric mixing rule
Step          Temp          Press          PotEng        Density         KinEng         TotEng           Lx             Ly             Lz            Xlo            Xhi            Ylo            Yhi            Zlo            Zhi           Volume           Dt            Time           CPU           T/CPU          S/CPU         CPULeft
11710000   371370.72      110.79597     -20640986       0.84884048     1105878.6     -19535107       839.02885      839.02885      839.02885      2080.4856      2919.5144      2080.4856      2919.5144      2080.4856      2919.5144      5.9065064e+08  0.5            6060000        0              0              0              0
Averages over the last 501 of 1001 rows, steps 11810000 to 11910000:
Temp Press PotEng Density KinEng TotEng Lx Ly Lz Xlo Xhi Ylo Yhi Zlo Zhi Volume Dt
370199 40.6712 -2.00183e+07 0.84884 1.10239e+06 -1.89159e+07 839.029 839.029 839.029 2080.49 2919.51 2080.49 2919.51 2080.49 2919.51 5.90651e+08 0.5
Loop time of 8.22372 on 4 procs for 200000 steps with 1000 atoms

unfix 3

fix 4 all nvt temp 370000 300 100.0

run 100000
Generated 0 of 1 mixed pair_coeff terms from geometric mixing rule
Step          Temp          Press          PotEng        Density         KinEng         TotEng           Lx             Ly             Lz            Xlo            Xhi            Ylo            Yhi            Zlo            Zhi           Volume           Dt            Time           CPU           T/CPU          S/CPU         CPULeft
11910000   373179.5       12.150791     -19789329       0.84884048     1111264.8     -18678064       839.02885      839.02885      839.02885      2080.4856      2919.5144      2080.4856      2919.5144      2080.4856      2919.5144      5.9065064e+08  0.5            6160000        0              0              0              0
Averages over the last 251 of 501 rows, steps 11960000 to 12010000:
Temp Press PotEng Density KinEng TotEng Lx Ly Lz Xlo Xhi Ylo Yhi Zlo Zhi Volume Dt
93215.8 -202.397 -2.08253e+07 0.84884 277581 -2.05477e+07 839.029 839.029 839.029 2080.49 2919.51 2080.49 2919.51 2080.49 2919.51 5.90651e+08 0.5
Loop time of 4.19895 on 4 procs for 100000 steps with 1000 atoms

unfix 4

fix 5 all npt temp 300 300 $(100.0*dt) iso 1.0 1.0 $(1000.0*dt)
fix 5 all npt temp 300 300 50 iso 1.0 1.0 $(1000.0*dt)
fix 5 all npt temp 300 300 50 iso 1.0 1.0 500

run 300000
Generated 0 of 1 mixed pair_coeff terms from geometric mixing rule
Step          Temp          Press          PotEng        Density         KinEng         TotEng           Lx             Ly             Lz            Xlo            Xhi            Ylo            Yhi            Zlo            Zhi           Volume           Dt            Time           CPU           T/CPU          S/CPU         CPULeft
12010000   1362.6756     -248.90962     -21268011       0.84884048     4057.8151     -21263953       839.02885      839.02885      839.02885      2080.4856      2919.5144      2080.4856      2919.5144      2080.4856      2919.5144      5.9065064e+08  0.5            6210000        0              0              0              0
Averages over the last 751 of 1501 rows, steps 12160000 to 12310000:
Temp Press PotEng Density KinEng TotEng Lx Ly Lz Xlo Xhi Ylo Yhi Zlo Zhi Volume Dt
312.564 0.927294 -2.185e+07 0.89591 930.761 -2.18491e+07 824.075 824.075 824.075 2087.96 2912.04 2087.96 2912.04 2087.96 2912.04 5.59634e+08 0.5
Loop time of 16.1086 on 4 procs for 300000 steps with 1000 atoms

# run_style
run_style verlet

# write restart
write_restart ./pgnpmf/64/equpmf17.res
System init for write_restart ...
Generated 0 of 1 mixed pair_coeff terms from geometric mixing rule
