LAMMPS (23 Jun 2022 - Update 1)
# Read restart
read_restart ./pgnpmf/64/equpmf59.res
Reading restart file ...
  restart file = 23 Jun 2022, LAMMPS = 23 Jun 2022
  restoring atom style atomic from restart
  orthogonal box = (2187.9002 2187.9002 2187.9002) to (2812.0998 2812.0998 2812.0998)
  restoring pair style table from restart
  1000 atoms
  read_restart CPU = 0.010 seconds

# Settings

pair_style table spline 9941

pair_coeff 1 1 ./pgnpmf/N20.txt DE_GNP 75.6
pair_coeff 2 2 ./pgnpmf/N100.txt DE_GNP 115.92
pair_coeff 1 2 ./pgnpmf/mixed_potential.txt DE_GNP 95.66

#Neigh_list Calc Frequency

neigh_modify delay 0 every 1 check yes

# Saving Frequency (50 frames)

variable ts_save equal 5000

# Dump
#dump_modify 1 first no sort id
dump 2 all cfg 50000 ./pgnpmf/64/equilibration/trajectory/dumpgen.tens_*.cfg mass type xs ys zs fx fy fz
dump_modify 2 element N20 N100

# thermo_style
thermo_style custom step temp press pe density ke etotal lx ly lz xlo xhi ylo yhi zlo zhi vol dt time cpu tpcpu spcpu cpuremain

# run info
timestep 0.5
thermo 200

# fix

fix 1 all momentum 1000 linear 1 1 1 angular
variable T equal 300
fix 2 all nvt temp 300 370000 100.0

run 100000
Generated 0 of 1 mixed pair_coeff terms from geometric mixing rule
Unused restart file global fix info:
  fix style: npt, fix ID: 5
  update every 1 steps, delay 0 steps, check yes
Step          Temp          Press          PotEng        Density         KinEng         TotEng           Lx             Ly             Lz            Xlo            Xhi            Ylo            Yhi            Zlo            Zhi           Volume           Dt            Time           CPU           T/CPU          S/CPU         CPULeft
41710000   299.49858      4.3134647     -27668520       2.0615134      891.85563     -27667628       624.19967      624.19967      624.19967      2187.9002      2812.0998      2187.9002      2812.0998      2187.9002      2812.0998      2.4320393e+08  0.5            21060000       0              0              0              0
Averages over the last 251 of 501 rows, steps 41760000 to 41810000:
Temp Press PotEng Density KinEng TotEng Lx Ly Lz Xlo Xhi Ylo Yhi Zlo Zhi Volume Dt
277340 2638.64 -2.69103e+07 2.06151 825873 -2.60844e+07 624.2 624.2 624.2 2187.9 2812.1 2187.9 2812.1 2187.9 2812.1 2.43204e+08 0.5
Loop time of 5.73732 on 4 procs for 100000 steps with 1000 atoms

unfix 2

fix 3 all nvt temp 370000 370000 $(100.0*dt) #iso 1.0 1.0 $(1000.0*dt)
fix 3 all nvt temp 370000 370000 50

run 200000
Generated 0 of 1 mixed pair_coeff terms from geometric mixing rule
Step          Temp          Press          PotEng        Density         KinEng         TotEng           Lx             Ly             Lz            Xlo            Xhi            Ylo            Yhi            Zlo            Zhi           Volume           Dt            Time           CPU           T/CPU          S/CPU         CPULeft
41810000   362292.52      3192.3535     -26726056       2.0615134      1078845.3     -25647210       624.19967      624.19967      624.19967      2187.9002      2812.0998      2187.9002      2812.0998      2187.9002      2812.0998      2.4320393e+08  0.5            21110000       0              0              0              0
Averages over the last 501 of 1001 rows, steps 41910000 to 42010000:
Temp Press PotEng Density KinEng TotEng Lx Ly Lz Xlo Xhi Ylo Yhi Zlo Zhi Volume Dt
370094 3259.93 -2.65673e+07 2.06151 1.10208e+06 -2.54652e+07 624.2 624.2 624.2 2187.9 2812.1 2187.9 2812.1 2187.9 2812.1 2.43204e+08 0.5
Loop time of 11.3892 on 4 procs for 200000 steps with 1000 atoms

unfix 3

fix 4 all nvt temp 370000 300 100.0

run 100000
Generated 0 of 1 mixed pair_coeff terms from geometric mixing rule
Step          Temp          Press          PotEng        Density         KinEng         TotEng           Lx             Ly             Lz            Xlo            Xhi            Ylo            Yhi            Zlo            Zhi           Volume           Dt            Time           CPU           T/CPU          S/CPU         CPULeft
42010000   377584.45      3266.432      -26567919       2.0615134      1124382       -25443537       624.19967      624.19967      624.19967      2187.9002      2812.0998      2187.9002      2812.0998      2187.9002      2812.0998      2.4320393e+08  0.5            21210000       0              0              0              0
Averages over the last 251 of 501 rows, steps 42060000 to 42110000:
Temp Press PotEng Density KinEng TotEng Lx Ly Lz Xlo Xhi Ylo Yhi Zlo Zhi Volume Dt
93026.3 933.248 -2.73878e+07 2.06151 277017 -2.71108e+07 624.2 624.2 624.2 2187.9 2812.1 2187.9 2812.1 2187.9 2812.1 2.43204e+08 0.5
Loop time of 5.64292 on 4 procs for 100000 steps with 1000 atoms

unfix 4

fix 5 all npt temp 300 300 $(100.0*dt) iso 1.0 1.0 $(1000.0*dt)
fix 5 all npt temp 300 300 50 iso 1.0 1.0 $(1000.0*dt)
fix 5 all npt temp 300 300 50 iso 1.0 1.0 500

run 300000
Generated 0 of 1 mixed pair_coeff terms from geometric mixing rule
Step          Temp          Press          PotEng        Density         KinEng         TotEng           Lx             Ly             Lz            Xlo            Xhi            Ylo            Yhi            Zlo            Zhi           Volume           Dt            Time           CPU           T/CPU          S/CPU         CPULeft
42110000   1388.5588      123.58162     -27667909       2.0615134      4134.8911     -27663774       624.19967      624.19967      624.19967      2187.9002      2812.0998      2187.9002      2812.0998      2187.9002      2812.0998      2.4320393e+08  0.5            21260000       0              0              0              0
Averages over the last 751 of 1501 rows, steps 42260000 to 42410000:
Temp Press PotEng Density KinEng TotEng Lx Ly Lz Xlo Xhi Ylo Yhi Zlo Zhi Volume Dt
300.12 1.11165 -2.77269e+07 2.05977 893.707 -2.7726e+07 624.376 624.376 624.376 2187.81 2812.19 2187.81 2812.19 2187.81 2812.19 2.4341e+08 0.5
Loop time of 19.8718 on 4 procs for 300000 steps with 1000 atoms

# run_style
run_style verlet

# write restart
write_restart ./pgnpmf/64/equpmf60.res
System init for write_restart ...
Generated 0 of 1 mixed pair_coeff terms from geometric mixing rule
