LAMMPS (23 Jun 2022 - Update 1)
# Read restart
read_restart ./pgnpmf/64/equpmf54.res
Reading restart file ...
  restart file = 23 Jun 2022, LAMMPS = 23 Jun 2022
  restoring atom style atomic from restart
  orthogonal box = (2187.7393 2187.7393 2187.7393) to (2812.2607 2812.2607 2812.2607)
  restoring pair style table from restart
  1000 atoms
  read_restart CPU = 0.007 seconds

# Settings

pair_style table spline 9941

pair_coeff 1 1 ./pgnpmf/N20.txt DE_GNP 75.6
pair_coeff 2 2 ./pgnpmf/N100.txt DE_GNP 115.92
pair_coeff 1 2 ./pgnpmf/mixed_potential.txt DE_GNP 95.66

#Neigh_list Calc Frequency

neigh_modify delay 0 every 1 check yes

# Saving Frequency (50 frames)

variable ts_save equal 5000

# Dump
#dump_modify 1 first no sort id
dump 2 all cfg 50000 ./pgnpmf/64/equilibration/trajectory/dumpgen.tens_*.cfg mass type xs ys zs fx fy fz
dump_modify 2 element N20 N100

# thermo_style
thermo_style custom step temp press pe density ke etotal lx ly lz xlo xhi ylo yhi zlo zhi vol dt time cpu tpcpu spcpu cpuremain

# run info
timestep 0.5
thermo 200

# fix

fix 1 all momentum 1000 linear 1 1 1 angular
variable T equal 300
fix 2 all nvt temp 300 370000 100.0

run 100000
Generated 0 of 1 mixed pair_coeff terms from geometric mixing rule
Unused restart file global fix info:
  fix style: npt, fix ID: 5
  update every 1 steps, delay 0 steps, check yes
Step          Temp          Press          PotEng        Density         KinEng         TotEng           Lx             Ly             Lz            Xlo            Xhi            Ylo            Yhi            Zlo            Zhi           Volume           Dt            Time           CPU           T/CPU          S/CPU         CPULeft
38210000   299.10904     -0.65577941    -27616273       2.0583295      890.69565     -27615383       624.52135      624.52135      624.52135      2187.7393      2812.2607      2187.7393      2812.2607      2187.7393      2812.2607      2.4358013e+08  0.5            19310000       0              0              0              0
Averages over the last 251 of 501 rows, steps 38260000 to 38310000:
Temp Press PotEng Density KinEng TotEng Lx Ly Lz Xlo Xhi Ylo Yhi Zlo Zhi Volume Dt
277446 2633.72 -2.68536e+07 2.05833 826187 -2.60275e+07 624.521 624.521 624.521 2187.74 2812.26 2187.74 2812.26 2187.74 2812.26 2.4358e+08 0.5
Loop time of 5.53568 on 4 procs for 100000 steps with 1000 atoms

unfix 2

fix 3 all nvt temp 370000 370000 $(100.0*dt) #iso 1.0 1.0 $(1000.0*dt)
fix 3 all nvt temp 370000 370000 50

run 200000
Generated 0 of 1 mixed pair_coeff terms from geometric mixing rule
Step          Temp          Press          PotEng        Density         KinEng         TotEng           Lx             Ly             Lz            Xlo            Xhi            Ylo            Yhi            Zlo            Zhi           Volume           Dt            Time           CPU           T/CPU          S/CPU         CPULeft
38310000   368604.59      3153.1722     -26584937       2.0583295      1097641.5     -25487296       624.52135      624.52135      624.52135      2187.7393      2812.2607      2187.7393      2812.2607      2187.7393      2812.2607      2.4358013e+08  0.5            19360000       0              0              0              0
Averages over the last 501 of 1001 rows, steps 38410000 to 38510000:
Temp Press PotEng Density KinEng TotEng Lx Ly Lz Xlo Xhi Ylo Yhi Zlo Zhi Volume Dt
369968 3203.76 -2.65748e+07 2.05833 1.1017e+06 -2.54731e+07 624.521 624.521 624.521 2187.74 2812.26 2187.74 2812.26 2187.74 2812.26 2.4358e+08 0.5
Loop time of 11.2184 on 4 procs for 200000 steps with 1000 atoms

unfix 3

fix 4 all nvt temp 370000 300 100.0

run 100000
Generated 0 of 1 mixed pair_coeff terms from geometric mixing rule
Step          Temp          Press          PotEng        Density         KinEng         TotEng           Lx             Ly             Lz            Xlo            Xhi            Ylo            Yhi            Zlo            Zhi           Volume           Dt            Time           CPU           T/CPU          S/CPU         CPULeft
38510000   354424.09      3224.7321     -26479408       2.0583295      1055414.4     -25423994       624.52135      624.52135      624.52135      2187.7393      2812.2607      2187.7393      2812.2607      2187.7393      2812.2607      2.4358013e+08  0.5            19460000       0              0              0              0
Averages over the last 251 of 501 rows, steps 38560000 to 38610000:
Temp Press PotEng Density KinEng TotEng Lx Ly Lz Xlo Xhi Ylo Yhi Zlo Zhi Volume Dt
93076.1 850.291 -2.7321e+07 2.05833 277165 -2.70438e+07 624.521 624.521 624.521 2187.74 2812.26 2187.74 2812.26 2187.74 2812.26 2.4358e+08 0.5
Loop time of 5.56501 on 4 procs for 100000 steps with 1000 atoms

unfix 4

fix 5 all npt temp 300 300 $(100.0*dt) iso 1.0 1.0 $(1000.0*dt)
fix 5 all npt temp 300 300 50 iso 1.0 1.0 $(1000.0*dt)
fix 5 all npt temp 300 300 50 iso 1.0 1.0 500

run 300000
Generated 0 of 1 mixed pair_coeff terms from geometric mixing rule
Step          Temp          Press          PotEng        Density         KinEng         TotEng           Lx             Ly             Lz            Xlo            Xhi            Ylo            Yhi            Zlo            Zhi           Volume           Dt            Time           CPU           T/CPU          S/CPU         CPULeft
38610000   1394.966       57.649183     -27585519       2.0583295      4153.9706     -27581366       624.52135      624.52135      624.52135      2187.7393      2812.2607      2187.7393      2812.2607      2187.7393      2812.2607      2.4358013e+08  0.5            19510000       0              0              0              0
Averages over the last 751 of 1501 rows, steps 38760000 to 38910000:
Temp Press PotEng Density KinEng TotEng Lx Ly Lz Xlo Xhi Ylo Yhi Zlo Zhi Volume Dt
300.151 0.9615 -2.76665e+07 2.0585 893.797 -2.76656e+07 624.504 624.504 624.504 2187.75 2812.25 2187.75 2812.25 2187.75 2812.25 2.4356e+08 0.5
Loop time of 19.4153 on 4 procs for 300000 steps with 1000 atoms

# run_style
run_style verlet

# write restart
write_restart ./pgnpmf/64/equpmf55.res
System init for write_restart ...
Generated 0 of 1 mixed pair_coeff terms from geometric mixing rule
