LAMMPS (23 Jun 2022 - Update 1)
# Read restart
read_restart ./pgnpmf/64/equpmf51.res
Reading restart file ...
  restart file = 23 Jun 2022, LAMMPS = 23 Jun 2022
  restoring atom style atomic from restart
  orthogonal box = (2187.8015 2187.8015 2187.8015) to (2812.1985 2812.1985 2812.1985)
  restoring pair style table from restart
  1000 atoms
  read_restart CPU = 0.008 seconds

# Settings

pair_style table spline 9941

pair_coeff 1 1 ./pgnpmf/N20.txt DE_GNP 75.6
pair_coeff 2 2 ./pgnpmf/N100.txt DE_GNP 115.92
pair_coeff 1 2 ./pgnpmf/mixed_potential.txt DE_GNP 95.66

#Neigh_list Calc Frequency

neigh_modify delay 0 every 1 check yes

# Saving Frequency (50 frames)

variable ts_save equal 5000

# Dump
#dump_modify 1 first no sort id
dump 2 all cfg 50000 ./pgnpmf/64/equilibration/trajectory/dumpgen.tens_*.cfg mass type xs ys zs fx fy fz
dump_modify 2 element N20 N100

# thermo_style
thermo_style custom step temp press pe density ke etotal lx ly lz xlo xhi ylo yhi zlo zhi vol dt time cpu tpcpu spcpu cpuremain

# run info
timestep 0.5
thermo 200

# fix

fix 1 all momentum 1000 linear 1 1 1 angular
variable T equal 300
fix 2 all nvt temp 300 370000 100.0

run 100000
Generated 0 of 1 mixed pair_coeff terms from geometric mixing rule
Unused restart file global fix info:
  fix style: npt, fix ID: 5
  update every 1 steps, delay 0 steps, check yes
Step          Temp          Press          PotEng        Density         KinEng         TotEng           Lx             Ly             Lz            Xlo            Xhi            Ylo            Yhi            Zlo            Zhi           Volume           Dt            Time           CPU           T/CPU          S/CPU         CPULeft
36110000   292.17262     -10.529459     -27706455       2.0595589      870.04016     -27705585       624.39706      624.39706      624.39706      2187.8015      2812.1985      2187.8015      2812.1985      2187.8015      2812.1985      2.4343474e+08  0.5            18260000       0              0              0              0
Averages over the last 251 of 501 rows, steps 36160000 to 36210000:
Temp Press PotEng Density KinEng TotEng Lx Ly Lz Xlo Xhi Ylo Yhi Zlo Zhi Volume Dt
277520 2672.05 -2.69063e+07 2.05956 826406 -2.60799e+07 624.397 624.397 624.397 2187.8 2812.2 2187.8 2812.2 2187.8 2812.2 2.43435e+08 0.5
Loop time of 5.67742 on 4 procs for 100000 steps with 1000 atoms

unfix 2

fix 3 all nvt temp 370000 370000 $(100.0*dt) #iso 1.0 1.0 $(1000.0*dt)
fix 3 all nvt temp 370000 370000 50

run 200000
Generated 0 of 1 mixed pair_coeff terms from geometric mixing rule
Step          Temp          Press          PotEng        Density         KinEng         TotEng           Lx             Ly             Lz            Xlo            Xhi            Ylo            Yhi            Zlo            Zhi           Volume           Dt            Time           CPU           T/CPU          S/CPU         CPULeft
36210000   379971.55      3265.8152     -26714493       2.0595589      1131490.4     -25583003       624.39706      624.39706      624.39706      2187.8015      2812.1985      2187.8015      2812.1985      2187.8015      2812.1985      2.4343474e+08  0.5            18310000       0              0              0              0
Averages over the last 501 of 1001 rows, steps 36310000 to 36410000:
Temp Press PotEng Density KinEng TotEng Lx Ly Lz Xlo Xhi Ylo Yhi Zlo Zhi Volume Dt
370049 3248.3 -2.65956e+07 2.05956 1.10194e+06 -2.54937e+07 624.397 624.397 624.397 2187.8 2812.2 2187.8 2812.2 2187.8 2812.2 2.43435e+08 0.5
Loop time of 11.3627 on 4 procs for 200000 steps with 1000 atoms

unfix 3

fix 4 all nvt temp 370000 300 100.0

run 100000
Generated 0 of 1 mixed pair_coeff terms from geometric mixing rule
Step          Temp          Press          PotEng        Density         KinEng         TotEng           Lx             Ly             Lz            Xlo            Xhi            Ylo            Yhi            Zlo            Zhi           Volume           Dt            Time           CPU           T/CPU          S/CPU         CPULeft
36410000   374258.06      3245.7865     -26675670       2.0595589      1114476.6     -25561194       624.39706      624.39706      624.39706      2187.8015      2812.1985      2187.8015      2812.1985      2187.8015      2812.1985      2.4343474e+08  0.5            18410000       0              0              0              0
Averages over the last 251 of 501 rows, steps 36460000 to 36510000:
Temp Press PotEng Density KinEng TotEng Lx Ly Lz Xlo Xhi Ylo Yhi Zlo Zhi Volume Dt
93026.4 976.846 -2.73685e+07 2.05956 277017 -2.70914e+07 624.397 624.397 624.397 2187.8 2812.2 2187.8 2812.2 2187.8 2812.2 2.43435e+08 0.5
Loop time of 5.6545 on 4 procs for 100000 steps with 1000 atoms

unfix 4

fix 5 all npt temp 300 300 $(100.0*dt) iso 1.0 1.0 $(1000.0*dt)
fix 5 all npt temp 300 300 50 iso 1.0 1.0 $(1000.0*dt)
fix 5 all npt temp 300 300 50 iso 1.0 1.0 500

run 300000
Generated 0 of 1 mixed pair_coeff terms from geometric mixing rule
Step          Temp          Press          PotEng        Density         KinEng         TotEng           Lx             Ly             Lz            Xlo            Xhi            Ylo            Yhi            Zlo            Zhi           Volume           Dt            Time           CPU           T/CPU          S/CPU         CPULeft
36510000   1376.8045      165.10452     -27629185       2.0595589      4099.8886     -27625085       624.39706      624.39706      624.39706      2187.8015      2812.1985      2187.8015      2812.1985      2187.8015      2812.1985      2.4343474e+08  0.5            18460000       0              0              0              0
Averages over the last 751 of 1501 rows, steps 36660000 to 36810000:
Temp Press PotEng Density KinEng TotEng Lx Ly Lz Xlo Xhi Ylo Yhi Zlo Zhi Volume Dt
300.234 0.951622 -2.76624e+07 2.05671 894.044 -2.76615e+07 624.686 624.686 624.686 2187.66 2812.34 2187.66 2812.34 2187.66 2812.34 2.43772e+08 0.5
Loop time of 19.897 on 4 procs for 300000 steps with 1000 atoms

# run_style
run_style verlet

# write restart
write_restart ./pgnpmf/64/equpmf52.res
System init for write_restart ...
Generated 0 of 1 mixed pair_coeff terms from geometric mixing rule
