LAMMPS (23 Jun 2022 - Update 1)
# Read restart
read_restart ./pgnpmf/64/equpmf50.res
Reading restart file ...
  restart file = 23 Jun 2022, LAMMPS = 23 Jun 2022
  restoring atom style atomic from restart
  orthogonal box = (2187.4801 2187.4801 2187.4801) to (2812.5199 2812.5199 2812.5199)
  restoring pair style table from restart
  1000 atoms
  read_restart CPU = 0.007 seconds

# Settings

pair_style table spline 9941

pair_coeff 1 1 ./pgnpmf/N20.txt DE_GNP 75.6
pair_coeff 2 2 ./pgnpmf/N100.txt DE_GNP 115.92
pair_coeff 1 2 ./pgnpmf/mixed_potential.txt DE_GNP 95.66

#Neigh_list Calc Frequency

neigh_modify delay 0 every 1 check yes

# Saving Frequency (50 frames)

variable ts_save equal 5000

# Dump
#dump_modify 1 first no sort id
dump 2 all cfg 50000 ./pgnpmf/64/equilibration/trajectory/dumpgen.tens_*.cfg mass type xs ys zs fx fy fz
dump_modify 2 element N20 N100

# thermo_style
thermo_style custom step temp press pe density ke etotal lx ly lz xlo xhi ylo yhi zlo zhi vol dt time cpu tpcpu spcpu cpuremain

# run info
timestep 0.5
thermo 200

# fix

fix 1 all momentum 1000 linear 1 1 1 angular
variable T equal 300
fix 2 all nvt temp 300 370000 100.0

run 100000
Generated 0 of 1 mixed pair_coeff terms from geometric mixing rule
Unused restart file global fix info:
  fix style: npt, fix ID: 5
  update every 1 steps, delay 0 steps, check yes
Step          Temp          Press          PotEng        Density         KinEng         TotEng           Lx             Ly             Lz            Xlo            Xhi            Ylo            Yhi            Zlo            Zhi           Volume           Dt            Time           CPU           T/CPU          S/CPU         CPULeft
35410000   305.35849      1.898799      -27582921       2.053211       909.30544     -27582012       625.03988      625.03988      625.03988      2187.4801      2812.5199      2187.4801      2812.5199      2187.4801      2812.5199      2.4418736e+08  0.5            17910000       0              0              0              0
Averages over the last 251 of 501 rows, steps 35460000 to 35510000:
Temp Press PotEng Density KinEng TotEng Lx Ly Lz Xlo Xhi Ylo Yhi Zlo Zhi Volume Dt
277551 2493.87 -2.68494e+07 2.05321 826499 -2.60229e+07 625.04 625.04 625.04 2187.48 2812.52 2187.48 2812.52 2187.48 2812.52 2.44187e+08 0.5
Loop time of 5.66385 on 4 procs for 100000 steps with 1000 atoms

unfix 2

fix 3 all nvt temp 370000 370000 $(100.0*dt) #iso 1.0 1.0 $(1000.0*dt)
fix 3 all nvt temp 370000 370000 50

run 200000
Generated 0 of 1 mixed pair_coeff terms from geometric mixing rule
Step          Temp          Press          PotEng        Density         KinEng         TotEng           Lx             Ly             Lz            Xlo            Xhi            Ylo            Yhi            Zlo            Zhi           Volume           Dt            Time           CPU           T/CPU          S/CPU         CPULeft
35510000   368718.83      3055.0616     -26605618       2.053211       1097981.7     -25507637       625.03988      625.03988      625.03988      2187.4801      2812.5199      2187.4801      2812.5199      2187.4801      2812.5199      2.4418736e+08  0.5            17960000       0              0              0              0
Averages over the last 501 of 1001 rows, steps 35610000 to 35710000:
Temp Press PotEng Density KinEng TotEng Lx Ly Lz Xlo Xhi Ylo Yhi Zlo Zhi Volume Dt
370141 3056.65 -2.65744e+07 2.05321 1.10222e+06 -2.54722e+07 625.04 625.04 625.04 2187.48 2812.52 2187.48 2812.52 2187.48 2812.52 2.44187e+08 0.5
Loop time of 11.2306 on 4 procs for 200000 steps with 1000 atoms

unfix 3

fix 4 all nvt temp 370000 300 100.0

run 100000
Generated 0 of 1 mixed pair_coeff terms from geometric mixing rule
Step          Temp          Press          PotEng        Density         KinEng         TotEng           Lx             Ly             Lz            Xlo            Xhi            Ylo            Yhi            Zlo            Zhi           Volume           Dt            Time           CPU           T/CPU          S/CPU         CPULeft
35710000   363874.11      3026.0676     -26649248       2.053211       1083555       -25565693       625.03988      625.03988      625.03988      2187.4801      2812.5199      2187.4801      2812.5199      2187.4801      2812.5199      2.4418736e+08  0.5            18060000       0              0              0              0
Averages over the last 251 of 501 rows, steps 35760000 to 35810000:
Temp Press PotEng Density KinEng TotEng Lx Ly Lz Xlo Xhi Ylo Yhi Zlo Zhi Volume Dt
93074.3 759.787 -2.73539e+07 2.05321 277159 -2.70768e+07 625.04 625.04 625.04 2187.48 2812.52 2187.48 2812.52 2187.48 2812.52 2.44187e+08 0.5
Loop time of 5.58576 on 4 procs for 100000 steps with 1000 atoms

unfix 4

fix 5 all npt temp 300 300 $(100.0*dt) iso 1.0 1.0 $(1000.0*dt)
fix 5 all npt temp 300 300 50 iso 1.0 1.0 $(1000.0*dt)
fix 5 all npt temp 300 300 50 iso 1.0 1.0 500

run 300000
Generated 0 of 1 mixed pair_coeff terms from geometric mixing rule
Step          Temp          Press          PotEng        Density         KinEng         TotEng           Lx             Ly             Lz            Xlo            Xhi            Ylo            Yhi            Zlo            Zhi           Volume           Dt            Time           CPU           T/CPU          S/CPU         CPULeft
35810000   1390.2656     -51.769925     -27593575       2.053211       4139.9736     -27589435       625.03988      625.03988      625.03988      2187.4801      2812.5199      2187.4801      2812.5199      2187.4801      2812.5199      2.4418736e+08  0.5            18110000       0              0              0              0
Averages over the last 751 of 1501 rows, steps 35960000 to 36110000:
Temp Press PotEng Density KinEng TotEng Lx Ly Lz Xlo Xhi Ylo Yhi Zlo Zhi Volume Dt
300.127 0.941528 -2.77035e+07 2.05951 893.726 -2.77026e+07 624.402 624.402 624.402 2187.8 2812.2 2187.8 2812.2 2187.8 2812.2 2.43441e+08 0.5
Loop time of 19.6664 on 4 procs for 300000 steps with 1000 atoms

# run_style
run_style verlet

# write restart
write_restart ./pgnpmf/64/equpmf51.res
System init for write_restart ...
Generated 0 of 1 mixed pair_coeff terms from geometric mixing rule
