LAMMPS (23 Jun 2022 - Update 1)
# Read restart
read_restart ./pgnpmf/3070/equpmf11.res
Reading restart file ...
  restart file = 23 Jun 2022, LAMMPS = 23 Jun 2022
  restoring atom style atomic from restart
  orthogonal box = (1441.1405 1441.1405 1441.1405) to (2558.8595 2558.8595 2558.8595)
  restoring pair style table from restart
  1000 atoms
  read_restart CPU = 0.005 seconds

# Settings

pair_style table spline 9941

pair_coeff 1 1 ./pgnpmf/N20.txt DE_GNP 75.6
pair_coeff 2 2 ./pgnpmf/N100.txt DE_GNP 115.92
pair_coeff 1 2 ./pgnpmf/mixed_potential.txt DE_GNP 95.66

#Neigh_list Calc Frequency

neigh_modify delay 0 every 1 check yes

# Saving Frequency (50 frames)

variable ts_save equal 5000

# Dump
#dump_modify 1 first no sort id
dump 2 all cfg 50000 ./pgnpmf/3070/equilibration/trajectory/dumpgen.tens_*.cfg mass type xs ys zs fx fy fz
dump_modify 2 element N20 N100

# thermo_style
thermo_style custom step temp press pe density ke etotal lx ly lz xlo xhi ylo yhi zlo zhi vol dt time cpu tpcpu spcpu cpuremain

# run info
timestep 0.25
thermo 200

# fix

fix 1 all momentum 1000 linear 1 1 1 angular
variable T equal 300
fix 2 all nvt temp 300 370000 100.0

run 100000
Generated 0 of 1 mixed pair_coeff terms from geometric mixing rule
Unused restart file global fix info:
  fix style: npt, fix ID: 5
  update every 1 steps, delay 0 steps, check yes
Step          Temp          Press          PotEng        Density         KinEng         TotEng           Lx             Ly             Lz            Xlo            Xhi            Ylo            Yhi            Zlo            Zhi           Volume           Dt            Time           CPU           T/CPU          S/CPU         CPULeft
12010000   311.90876      1.8194714     -25462978       0.43047589     928.81104     -25462049       1117.7191      1117.7191      1117.7191      1441.1405      2558.8595      1441.1405      2558.8595      1441.1405      2558.8595      1.3963619e+09  0.25           3760000        0              0              0              0
Averages over the last 251 of 501 rows, steps 12060000 to 12110000:
Temp Press PotEng Density KinEng TotEng Lx Ly Lz Xlo Xhi Ylo Yhi Zlo Zhi Volume Dt
277529 43.6441 -2.59188e+07 0.430476 826434 -2.50923e+07 1117.72 1117.72 1117.72 1441.14 2558.86 1441.14 2558.86 1441.14 2558.86 1.39636e+09 0.25
Loop time of 3.38795 on 4 procs for 100000 steps with 1000 atoms

unfix 2

fix 3 all nvt temp 370000 370000 $(100.0*dt) #iso 1.0 1.0 $(1000.0*dt)
fix 3 all nvt temp 370000 370000 25

run 500000
Generated 0 of 1 mixed pair_coeff terms from geometric mixing rule
Step          Temp          Press          PotEng        Density         KinEng         TotEng           Lx             Ly             Lz            Xlo            Xhi            Ylo            Yhi            Zlo            Zhi           Volume           Dt            Time           CPU           T/CPU          S/CPU         CPULeft
12110000   371024.99      42.394117     -25949722       0.43047589     1104849.1     -24844873       1117.7191      1117.7191      1117.7191      1441.1405      2558.8595      1441.1405      2558.8595      1441.1405      2558.8595      1.3963619e+09  0.25           3785000        0              0              0              0
Averages over the last 1251 of 2501 rows, steps 12360000 to 12610000:
Temp Press PotEng Density KinEng TotEng Lx Ly Lz Xlo Xhi Ylo Yhi Zlo Zhi Volume Dt
370068 3.12911 -2.54737e+07 0.430476 1.102e+06 -2.43717e+07 1117.72 1117.72 1117.72 1441.14 2558.86 1441.14 2558.86 1441.14 2558.86 1.39636e+09 0.25
Loop time of 17.1974 on 4 procs for 500000 steps with 1000 atoms

unfix 3

fix 4 all nvt temp 370000 300 100.0

run 100000
Generated 0 of 1 mixed pair_coeff terms from geometric mixing rule
Step          Temp          Press          PotEng        Density         KinEng         TotEng           Lx             Ly             Lz            Xlo            Xhi            Ylo            Yhi            Zlo            Zhi           Volume           Dt            Time           CPU           T/CPU          S/CPU         CPULeft
12610000   369083.22      12.77445      -25708351       0.43047589     1099066.8     -24609285       1117.7191      1117.7191      1117.7191      1441.1405      2558.8595      1441.1405      2558.8595      1441.1405      2558.8595      1.3963619e+09  0.25           3910000        0              0              0              0
Averages over the last 251 of 501 rows, steps 12660000 to 12710000:
Temp Press PotEng Density KinEng TotEng Lx Ly Lz Xlo Xhi Ylo Yhi Zlo Zhi Volume Dt
93752 -107.393 -2.6542e+07 0.430476 279177 -2.62629e+07 1117.72 1117.72 1117.72 1441.14 2558.86 1441.14 2558.86 1441.14 2558.86 1.39636e+09 0.25
Loop time of 3.57908 on 4 procs for 100000 steps with 1000 atoms

unfix 4

fix 5 all npt temp 300 300 $(100.0*dt) iso 1.0 1.0 $(1000.0*dt)
fix 5 all npt temp 300 300 25 iso 1.0 1.0 $(1000.0*dt)
fix 5 all npt temp 300 300 25 iso 1.0 1.0 250

run 300000
Generated 0 of 1 mixed pair_coeff terms from geometric mixing rule
Step          Temp          Press          PotEng        Density         KinEng         TotEng           Lx             Ly             Lz            Xlo            Xhi            Ylo            Yhi            Zlo            Zhi           Volume           Dt            Time           CPU           T/CPU          S/CPU         CPULeft
12710000   2349.0361     -145.81761     -26949879       0.43047589     6995.0285     -26942884       1117.7191      1117.7191      1117.7191      1441.1405      2558.8595      1441.1405      2558.8595      1441.1405      2558.8595      1.3963619e+09  0.25           3935000        0              0              0              0
Averages over the last 751 of 1501 rows, steps 12860000 to 13010000:
Temp Press PotEng Density KinEng TotEng Lx Ly Lz Xlo Xhi Ylo Yhi Zlo Zhi Volume Dt
312.991 1.02382 -2.7676e+07 0.454467 932.034 -2.76751e+07 1097.7 1097.7 1097.7 1451.15 2548.85 1451.15 2548.85 1451.15 2548.85 1.32268e+09 0.25
Loop time of 13.3966 on 4 procs for 300000 steps with 1000 atoms

# run_style
run_style verlet

# write restart
write_restart ./pgnpmf/3070/equpmf12.res
System init for write_restart ...
Generated 0 of 1 mixed pair_coeff terms from geometric mixing rule
