LAMMPS (23 Jun 2022 - Update 1)
# Read restart
read_restart ./pgnpmf/3070/equpmf38.res
Reading restart file ...
  restart file = 23 Jun 2022, LAMMPS = 23 Jun 2022
  restoring atom style atomic from restart
  orthogonal box = (1649.938 1649.938 1649.938) to (2350.062 2350.062 2350.062)
  restoring pair style table from restart
  1000 atoms
  read_restart CPU = 0.006 seconds

# Settings

pair_style table spline 9941

pair_coeff 1 1 ./pgnpmf/N20.txt DE_GNP 75.6
pair_coeff 2 2 ./pgnpmf/N100.txt DE_GNP 115.92
pair_coeff 1 2 ./pgnpmf/mixed_potential.txt DE_GNP 95.66

#Neigh_list Calc Frequency

neigh_modify delay 0 every 1 check yes

# Saving Frequency (50 frames)

variable ts_save equal 5000

# Dump
#dump_modify 1 first no sort id
dump 2 all cfg 50000 ./pgnpmf/3070/equilibration/trajectory/dumpgen.tens_*.cfg mass type xs ys zs fx fy fz
dump_modify 2 element N20 N100

# thermo_style
thermo_style custom step temp press pe density ke etotal lx ly lz xlo xhi ylo yhi zlo zhi vol dt time cpu tpcpu spcpu cpuremain

# run info
timestep 0.25
thermo 200

# fix

fix 1 all momentum 1000 linear 1 1 1 angular
variable T equal 300
fix 2 all nvt temp 300 370000 100.0

run 100000
Generated 0 of 1 mixed pair_coeff terms from geometric mixing rule
Unused restart file global fix info:
  fix style: npt, fix ID: 5
  update every 1 steps, delay 0 steps, check yes
Step          Temp          Press          PotEng        Density         KinEng         TotEng           Lx             Ly             Lz            Xlo            Xhi            Ylo            Yhi            Zlo            Zhi           Volume           Dt            Time           CPU           T/CPU          S/CPU         CPULeft
39010000   312.94975      0.45277017    -44672445       1.7515479      931.91092     -44671514       700.12395      700.12395      700.12395      1649.938       2350.062       1649.938       2350.062       1649.938       2350.062       3.4318224e+08  0.25           10510000       0              0              0              0
Averages over the last 251 of 501 rows, steps 39060000 to 39110000:
Temp Press PotEng Density KinEng TotEng Lx Ly Lz Xlo Xhi Ylo Yhi Zlo Zhi Volume Dt
277297 1662.52 -4.40447e+07 1.75155 825743 -4.3219e+07 700.124 700.124 700.124 1649.94 2350.06 1649.94 2350.06 1649.94 2350.06 3.43182e+08 0.25
Loop time of 5.25346 on 4 procs for 100000 steps with 1000 atoms

unfix 2

fix 3 all nvt temp 370000 370000 $(100.0*dt) #iso 1.0 1.0 $(1000.0*dt)
fix 3 all nvt temp 370000 370000 25

run 500000
Generated 0 of 1 mixed pair_coeff terms from geometric mixing rule
Step          Temp          Press          PotEng        Density         KinEng         TotEng           Lx             Ly             Lz            Xlo            Xhi            Ylo            Yhi            Zlo            Zhi           Volume           Dt            Time           CPU           T/CPU          S/CPU         CPULeft
39110000   380206.91      2374.395      -43746240       1.7515479      1132191.3     -42614049       700.12395      700.12395      700.12395      1649.938       2350.062       1649.938       2350.062       1649.938       2350.062       3.4318224e+08  0.25           10535000       0              0              0              0
Averages over the last 1251 of 2501 rows, steps 39360000 to 39610000:
Temp Press PotEng Density KinEng TotEng Lx Ly Lz Xlo Xhi Ylo Yhi Zlo Zhi Volume Dt
370176 2188.89 -4.35313e+07 1.75155 1.10232e+06 -4.2429e+07 700.124 700.124 700.124 1649.94 2350.06 1649.94 2350.06 1649.94 2350.06 3.43182e+08 0.25
Loop time of 26.8165 on 4 procs for 500000 steps with 1000 atoms

unfix 3

fix 4 all nvt temp 370000 300 100.0

run 100000
Generated 0 of 1 mixed pair_coeff terms from geometric mixing rule
Step          Temp          Press          PotEng        Density         KinEng         TotEng           Lx             Ly             Lz            Xlo            Xhi            Ylo            Yhi            Zlo            Zhi           Volume           Dt            Time           CPU           T/CPU          S/CPU         CPULeft
39610000   370099.84      2244.7923     -43513028       1.7515479      1102094.1     -42410934       700.12395      700.12395      700.12395      1649.938       2350.062       1649.938       2350.062       1649.938       2350.062       3.4318224e+08  0.25           10660000       0              0              0              0
Averages over the last 251 of 501 rows, steps 39660000 to 39710000:
Temp Press PotEng Density KinEng TotEng Lx Ly Lz Xlo Xhi Ylo Yhi Zlo Zhi Volume Dt
93578.1 634.996 -4.43995e+07 1.75155 278660 -4.41208e+07 700.124 700.124 700.124 1649.94 2350.06 1649.94 2350.06 1649.94 2350.06 3.43182e+08 0.25
Loop time of 5.34892 on 4 procs for 100000 steps with 1000 atoms

unfix 4

fix 5 all npt temp 300 300 $(100.0*dt) iso 1.0 1.0 $(1000.0*dt)
fix 5 all npt temp 300 300 25 iso 1.0 1.0 $(1000.0*dt)
fix 5 all npt temp 300 300 25 iso 1.0 1.0 250

run 300000
Generated 0 of 1 mixed pair_coeff terms from geometric mixing rule
Step          Temp          Press          PotEng        Density         KinEng         TotEng           Lx             Ly             Lz            Xlo            Xhi            Ylo            Yhi            Zlo            Zhi           Volume           Dt            Time           CPU           T/CPU          S/CPU         CPULeft
39710000   2371.0751      138.72475     -44608405       1.7515479      7060.6567     -44601344       700.12395      700.12395      700.12395      1649.938       2350.062       1649.938       2350.062       1649.938       2350.062       3.4318224e+08  0.25           10685000       0              0              0              0
Averages over the last 751 of 1501 rows, steps 39860000 to 40010000:
Temp Press PotEng Density KinEng TotEng Lx Ly Lz Xlo Xhi Ylo Yhi Zlo Zhi Volume Dt
301.411 1.08706 -4.46323e+07 1.75159 897.549 -4.46314e+07 700.118 700.118 700.118 1649.94 2350.06 1649.94 2350.06 1649.94 2350.06 3.43173e+08 0.25
Loop time of 18.5845 on 4 procs for 300000 steps with 1000 atoms

# run_style
run_style verlet

# write restart
write_restart ./pgnpmf/3070/equpmf39.res
System init for write_restart ...
Generated 0 of 1 mixed pair_coeff terms from geometric mixing rule
