LAMMPS (23 Jun 2022 - Update 1)
# Read restart
read_restart ./pgnpmf/3070/equpmf64.res
Reading restart file ...
  restart file = 23 Jun 2022, LAMMPS = 23 Jun 2022
  restoring atom style atomic from restart
  orthogonal box = (1650.6207 1650.6207 1650.6207) to (2349.3793 2349.3793 2349.3793)
  restoring pair style table from restart
  1000 atoms
  read_restart CPU = 0.005 seconds

# Settings

pair_style table spline 9941

pair_coeff 1 1 ./pgnpmf/N20.txt DE_GNP 75.6
pair_coeff 2 2 ./pgnpmf/N100.txt DE_GNP 115.92
pair_coeff 1 2 ./pgnpmf/mixed_potential.txt DE_GNP 95.66

#Neigh_list Calc Frequency

neigh_modify delay 0 every 1 check yes

# Saving Frequency (50 frames)

variable ts_save equal 5000

# Dump
#dump_modify 1 first no sort id
dump 2 all cfg 50000 ./pgnpmf/3070/equilibration/trajectory/dumpgen.tens_*.cfg mass type xs ys zs fx fy fz
dump_modify 2 element N20 N100

# thermo_style
thermo_style custom step temp press pe density ke etotal lx ly lz xlo xhi ylo yhi zlo zhi vol dt time cpu tpcpu spcpu cpuremain

# run info
timestep 0.25
thermo 200

# fix

fix 1 all momentum 1000 linear 1 1 1 angular
variable T equal 300
fix 2 all nvt temp 300 370000 100.0

run 100000
Generated 0 of 1 mixed pair_coeff terms from geometric mixing rule
Unused restart file global fix info:
  fix style: npt, fix ID: 5
  update every 1 steps, delay 0 steps, check yes
Step          Temp          Press          PotEng        Density         KinEng         TotEng           Lx             Ly             Lz            Xlo            Xhi            Ylo            Yhi            Zlo            Zhi           Volume           Dt            Time           CPU           T/CPU          S/CPU         CPULeft
65010000   292.52193     -4.5126115     -44813805       1.7618358      871.08036     -44812934       698.75854      698.75854      698.75854      1650.6207      2349.3793      1650.6207      2349.3793      1650.6207      2349.3793      3.4117829e+08  0.25           17010000       0              0              0              0
Averages over the last 251 of 501 rows, steps 65060000 to 65110000:
Temp Press PotEng Density KinEng TotEng Lx Ly Lz Xlo Xhi Ylo Yhi Zlo Zhi Volume Dt
276863 1785.6 -4.41583e+07 1.76184 824450 -4.33339e+07 698.759 698.759 698.759 1650.62 2349.38 1650.62 2349.38 1650.62 2349.38 3.41178e+08 0.25
Loop time of 5.52084 on 4 procs for 100000 steps with 1000 atoms

unfix 2

fix 3 all nvt temp 370000 370000 $(100.0*dt) #iso 1.0 1.0 $(1000.0*dt)
fix 3 all nvt temp 370000 370000 25

run 500000
Generated 0 of 1 mixed pair_coeff terms from geometric mixing rule
Step          Temp          Press          PotEng        Density         KinEng         TotEng           Lx             Ly             Lz            Xlo            Xhi            Ylo            Yhi            Zlo            Zhi           Volume           Dt            Time           CPU           T/CPU          S/CPU         CPULeft
65110000   366423.53      2606.8209     -43712394       1.7618358      1091146.7     -42621247       698.75854      698.75854      698.75854      1650.6207      2349.3793      1650.6207      2349.3793      1650.6207      2349.3793      3.4117829e+08  0.25           17035000       0              0              0              0
Averages over the last 1251 of 2501 rows, steps 65360000 to 65610000:
Temp Press PotEng Density KinEng TotEng Lx Ly Lz Xlo Xhi Ylo Yhi Zlo Zhi Volume Dt
370111 2218.7 -4.38089e+07 1.76184 1.10213e+06 -4.27068e+07 698.759 698.759 698.759 1650.62 2349.38 1650.62 2349.38 1650.62 2349.38 3.41178e+08 0.25
Loop time of 27.0371 on 4 procs for 500000 steps with 1000 atoms

unfix 3

fix 4 all nvt temp 370000 300 100.0

run 100000
Generated 0 of 1 mixed pair_coeff terms from geometric mixing rule
Step          Temp          Press          PotEng        Density         KinEng         TotEng           Lx             Ly             Lz            Xlo            Xhi            Ylo            Yhi            Zlo            Zhi           Volume           Dt            Time           CPU           T/CPU          S/CPU         CPULeft
65610000   352884.86      2272.8282     -43654787       1.7618358      1050830.9     -42603956       698.75854      698.75854      698.75854      1650.6207      2349.3793      1650.6207      2349.3793      1650.6207      2349.3793      3.4117829e+08  0.25           17160000       0              0              0              0
Averages over the last 251 of 501 rows, steps 65660000 to 65710000:
Temp Press PotEng Density KinEng TotEng Lx Ly Lz Xlo Xhi Ylo Yhi Zlo Zhi Volume Dt
93613.1 622.839 -4.4477e+07 1.76184 278764 -4.41982e+07 698.759 698.759 698.759 1650.62 2349.38 1650.62 2349.38 1650.62 2349.38 3.41178e+08 0.25
Loop time of 5.39646 on 4 procs for 100000 steps with 1000 atoms

unfix 4

fix 5 all npt temp 300 300 $(100.0*dt) iso 1.0 1.0 $(1000.0*dt)
fix 5 all npt temp 300 300 25 iso 1.0 1.0 $(1000.0*dt)
fix 5 all npt temp 300 300 25 iso 1.0 1.0 250

run 300000
Generated 0 of 1 mixed pair_coeff terms from geometric mixing rule
Step          Temp          Press          PotEng        Density         KinEng         TotEng           Lx             Ly             Lz            Xlo            Xhi            Ylo            Yhi            Zlo            Zhi           Volume           Dt            Time           CPU           T/CPU          S/CPU         CPULeft
65710000   2389.1142      148.92089     -44726308       1.7618358      7114.3741     -44719194       698.75854      698.75854      698.75854      1650.6207      2349.3793      1650.6207      2349.3793      1650.6207      2349.3793      3.4117829e+08  0.25           17185000       0              0              0              0
Averages over the last 751 of 1501 rows, steps 65860000 to 66010000:
Temp Press PotEng Density KinEng TotEng Lx Ly Lz Xlo Xhi Ylo Yhi Zlo Zhi Volume Dt
302.257 1.02474 -4.47886e+07 1.76122 900.07 -4.47877e+07 698.84 698.84 698.84 1650.58 2349.42 1650.58 2349.42 1650.58 2349.42 3.41297e+08 0.25
Loop time of 18.8724 on 4 procs for 300000 steps with 1000 atoms

# run_style
run_style verlet

# write restart
write_restart ./pgnpmf/3070/equpmf65.res
System init for write_restart ...
Generated 0 of 1 mixed pair_coeff terms from geometric mixing rule
