LAMMPS (23 Jun 2022 - Update 1)
# Read restart
read_restart ./pgnpmf/3070/equpmf65.res
Reading restart file ...
  restart file = 23 Jun 2022, LAMMPS = 23 Jun 2022
  restoring atom style atomic from restart
  orthogonal box = (1650.5825 1650.5825 1650.5825) to (2349.4175 2349.4175 2349.4175)
  restoring pair style table from restart
  1000 atoms
  read_restart CPU = 0.006 seconds

# Settings

pair_style table spline 9941

pair_coeff 1 1 ./pgnpmf/N20.txt DE_GNP 75.6
pair_coeff 2 2 ./pgnpmf/N100.txt DE_GNP 115.92
pair_coeff 1 2 ./pgnpmf/mixed_potential.txt DE_GNP 95.66

#Neigh_list Calc Frequency

neigh_modify delay 0 every 1 check yes

# Saving Frequency (50 frames)

variable ts_save equal 5000

# Dump
#dump_modify 1 first no sort id
dump 2 all cfg 50000 ./pgnpmf/3070/equilibration/trajectory/dumpgen.tens_*.cfg mass type xs ys zs fx fy fz
dump_modify 2 element N20 N100

# thermo_style
thermo_style custom step temp press pe density ke etotal lx ly lz xlo xhi ylo yhi zlo zhi vol dt time cpu tpcpu spcpu cpuremain

# run info
timestep 0.25
thermo 200

# fix

fix 1 all momentum 1000 linear 1 1 1 angular
variable T equal 300
fix 2 all nvt temp 300 370000 100.0

run 100000
Generated 0 of 1 mixed pair_coeff terms from geometric mixing rule
Unused restart file global fix info:
  fix style: npt, fix ID: 5
  update every 1 steps, delay 0 steps, check yes
Step          Temp          Press          PotEng        Density         KinEng         TotEng           Lx             Ly             Lz            Xlo            Xhi            Ylo            Yhi            Zlo            Zhi           Volume           Dt            Time           CPU           T/CPU          S/CPU         CPULeft
66010000   302.20737     -2.5688446     -44827723       1.7612579      899.92195     -44826823       698.83496      698.83496      698.83496      1650.5825      2349.4175      1650.5825      2349.4175      1650.5825      2349.4175      3.4129024e+08  0.25           17260000       0              0              0              0
Averages over the last 251 of 501 rows, steps 66060000 to 66110000:
Temp Press PotEng Density KinEng TotEng Lx Ly Lz Xlo Xhi Ylo Yhi Zlo Zhi Volume Dt
277603 1823.12 -4.41223e+07 1.76126 826653 -4.32956e+07 698.835 698.835 698.835 1650.58 2349.42 1650.58 2349.42 1650.58 2349.42 3.4129e+08 0.25
Loop time of 5.52907 on 4 procs for 100000 steps with 1000 atoms

unfix 2

fix 3 all nvt temp 370000 370000 $(100.0*dt) #iso 1.0 1.0 $(1000.0*dt)
fix 3 all nvt temp 370000 370000 25

run 500000
Generated 0 of 1 mixed pair_coeff terms from geometric mixing rule
Step          Temp          Press          PotEng        Density         KinEng         TotEng           Lx             Ly             Lz            Xlo            Xhi            Ylo            Yhi            Zlo            Zhi           Volume           Dt            Time           CPU           T/CPU          S/CPU         CPULeft
66110000   381171.78      2573.2209     -43841888       1.7612579      1135064.5     -42706824       698.83496      698.83496      698.83496      1650.5825      2349.4175      1650.5825      2349.4175      1650.5825      2349.4175      3.4129024e+08  0.25           17285000       0              0              0              0
Averages over the last 1251 of 2501 rows, steps 66360000 to 66610000:
Temp Press PotEng Density KinEng TotEng Lx Ly Lz Xlo Xhi Ylo Yhi Zlo Zhi Volume Dt
369967 2197.79 -4.37959e+07 1.76126 1.1017e+06 -4.26943e+07 698.835 698.835 698.835 1650.58 2349.42 1650.58 2349.42 1650.58 2349.42 3.4129e+08 0.25
Loop time of 28.0134 on 4 procs for 500000 steps with 1000 atoms

unfix 3

fix 4 all nvt temp 370000 300 100.0

run 100000
Generated 0 of 1 mixed pair_coeff terms from geometric mixing rule
Step          Temp          Press          PotEng        Density         KinEng         TotEng           Lx             Ly             Lz            Xlo            Xhi            Ylo            Yhi            Zlo            Zhi           Volume           Dt            Time           CPU           T/CPU          S/CPU         CPULeft
66610000   374691.31      2266.6282     -43621653       1.7612579      1115766.7     -42505886       698.83496      698.83496      698.83496      1650.5825      2349.4175      1650.5825      2349.4175      1650.5825      2349.4175      3.4129024e+08  0.25           17410000       0              0              0              0
Averages over the last 251 of 501 rows, steps 66660000 to 66710000:
Temp Press PotEng Density KinEng TotEng Lx Ly Lz Xlo Xhi Ylo Yhi Zlo Zhi Volume Dt
93513.4 602.312 -4.45175e+07 1.76126 278467 -4.4239e+07 698.835 698.835 698.835 1650.58 2349.42 1650.58 2349.42 1650.58 2349.42 3.4129e+08 0.25
Loop time of 5.49082 on 4 procs for 100000 steps with 1000 atoms

unfix 4

fix 5 all npt temp 300 300 $(100.0*dt) iso 1.0 1.0 $(1000.0*dt)
fix 5 all npt temp 300 300 25 iso 1.0 1.0 $(1000.0*dt)
fix 5 all npt temp 300 300 25 iso 1.0 1.0 250

run 300000
Generated 0 of 1 mixed pair_coeff terms from geometric mixing rule
Step          Temp          Press          PotEng        Density         KinEng         TotEng           Lx             Ly             Lz            Xlo            Xhi            Ylo            Yhi            Zlo            Zhi           Volume           Dt            Time           CPU           T/CPU          S/CPU         CPULeft
66710000   2377.5779      109.67474     -44777642       1.7612579      7080.0208     -44770562       698.83496      698.83496      698.83496      1650.5825      2349.4175      1650.5825      2349.4175      1650.5825      2349.4175      3.4129024e+08  0.25           17435000       0              0              0              0
Averages over the last 751 of 1501 rows, steps 66860000 to 67010000:
Temp Press PotEng Density KinEng TotEng Lx Ly Lz Xlo Xhi Ylo Yhi Zlo Zhi Volume Dt
300.659 1.27755 -4.48697e+07 1.76128 895.311 -4.48688e+07 698.832 698.832 698.832 1650.58 2349.42 1650.58 2349.42 1650.58 2349.42 3.41286e+08 0.25
Loop time of 20.3567 on 4 procs for 300000 steps with 1000 atoms

# run_style
run_style verlet

# write restart
write_restart ./pgnpmf/3070/equpmf66.res
System init for write_restart ...
Generated 0 of 1 mixed pair_coeff terms from geometric mixing rule
