LAMMPS (23 Jun 2022 - Update 1)
# Read restart
read_restart ./pgnpmf/3070/equpmf6.res
Reading restart file ...
  restart file = 23 Jun 2022, LAMMPS = 23 Jun 2022
  restoring atom style atomic from restart
  orthogonal box = (1349.4079 1349.4079 1349.4079) to (2650.5921 2650.5921 2650.5921)
  restoring pair style table from restart
  1000 atoms
  read_restart CPU = 0.009 seconds

# Settings

pair_style table spline 9941

pair_coeff 1 1 ./pgnpmf/N20.txt DE_GNP 75.6
pair_coeff 2 2 ./pgnpmf/N100.txt DE_GNP 115.92
pair_coeff 1 2 ./pgnpmf/mixed_potential.txt DE_GNP 95.66

#Neigh_list Calc Frequency

neigh_modify delay 0 every 1 check yes

# Saving Frequency (50 frames)

variable ts_save equal 5000

# Dump
#dump_modify 1 first no sort id
dump 2 all cfg 50000 ./pgnpmf/3070/equilibration/trajectory/dumpgen.tens_*.cfg mass type xs ys zs fx fy fz
dump_modify 2 element N20 N100

# thermo_style
thermo_style custom step temp press pe density ke etotal lx ly lz xlo xhi ylo yhi zlo zhi vol dt time cpu tpcpu spcpu cpuremain

# run info
timestep 0.25
thermo 200

# fix

fix 1 all momentum 1000 linear 1 1 1 angular
variable T equal 300
fix 2 all nvt temp 300 370000 100.0

run 100000
Generated 0 of 1 mixed pair_coeff terms from geometric mixing rule
Unused restart file global fix info:
  fix style: npt, fix ID: 5
  update every 1 steps, delay 0 steps, check yes
Step          Temp          Press          PotEng        Density         KinEng         TotEng           Lx             Ly             Lz            Xlo            Xhi            Ylo            Yhi            Zlo            Zhi           Volume           Dt            Time           CPU           T/CPU          S/CPU         CPULeft
7010000   314.29735      0.65545346    -9969653.2      0.27285407     935.92385     -9968717.2      1301.1842      1301.1842      1301.1842      1349.4079      2650.5921      1349.4079      2650.5921      1349.4079      2650.5921      2.2030096e+09  0.25           2510000        0              0              0              0
Averages over the last 251 of 501 rows, steps 7060000 to 7110000:
Temp Press PotEng Density KinEng TotEng Lx Ly Lz Xlo Xhi Ylo Yhi Zlo Zhi Volume Dt
277632 50.001 -1.05466e+07 0.272854 826741 -9.71983e+06 1301.18 1301.18 1301.18 1349.41 2650.59 1349.41 2650.59 1349.41 2650.59 2.20301e+09 0.25
Loop time of 2.32853 on 4 procs for 100000 steps with 1000 atoms

unfix 2

fix 3 all nvt temp 370000 370000 $(100.0*dt) #iso 1.0 1.0 $(1000.0*dt)
fix 3 all nvt temp 370000 370000 25

run 500000
Generated 0 of 1 mixed pair_coeff terms from geometric mixing rule
Step          Temp          Press          PotEng        Density         KinEng         TotEng           Lx             Ly             Lz            Xlo            Xhi            Ylo            Yhi            Zlo            Zhi           Volume           Dt            Time           CPU           T/CPU          S/CPU         CPULeft
7110000   373155.61      28.273448     -10443553       0.27285407     1111193.7     -9332359        1301.1842      1301.1842      1301.1842      1349.4079      2650.5921      1349.4079      2650.5921      1349.4079      2650.5921      2.2030096e+09  0.25           2535000        0              0              0              0
Averages over the last 1251 of 2501 rows, steps 7360000 to 7610000:
Temp Press PotEng Density KinEng TotEng Lx Ly Lz Xlo Xhi Ylo Yhi Zlo Zhi Volume Dt
369983 6.55298 -1.06713e+07 0.272854 1.10175e+06 -9.56956e+06 1301.18 1301.18 1301.18 1349.41 2650.59 1349.41 2650.59 1349.41 2650.59 2.20301e+09 0.25
Loop time of 11.4364 on 4 procs for 500000 steps with 1000 atoms

unfix 3

fix 4 all nvt temp 370000 300 100.0

run 100000
Generated 0 of 1 mixed pair_coeff terms from geometric mixing rule
Step          Temp          Press          PotEng        Density         KinEng         TotEng           Lx             Ly             Lz            Xlo            Xhi            Ylo            Yhi            Zlo            Zhi           Volume           Dt            Time           CPU           T/CPU          S/CPU         CPULeft
7610000   367592.66      10.181333     -11255660       0.27285407     1094628.2     -10161032       1301.1842      1301.1842      1301.1842      1349.4079      2650.5921      1349.4079      2650.5921      1349.4079      2650.5921      2.2030096e+09  0.25           2660000        0              0              0              0
Averages over the last 251 of 501 rows, steps 7660000 to 7710000:
Temp Press PotEng Density KinEng TotEng Lx Ly Lz Xlo Xhi Ylo Yhi Zlo Zhi Volume Dt
93660 -30.3167 -1.1941e+07 0.272854 278904 -1.16621e+07 1301.18 1301.18 1301.18 1349.41 2650.59 1349.41 2650.59 1349.41 2650.59 2.20301e+09 0.25
Loop time of 2.33296 on 4 procs for 100000 steps with 1000 atoms

unfix 4

fix 5 all npt temp 300 300 $(100.0*dt) iso 1.0 1.0 $(1000.0*dt)
fix 5 all npt temp 300 300 25 iso 1.0 1.0 $(1000.0*dt)
fix 5 all npt temp 300 300 25 iso 1.0 1.0 250

run 300000
Generated 0 of 1 mixed pair_coeff terms from geometric mixing rule
Step          Temp          Press          PotEng        Density         KinEng         TotEng           Lx             Ly             Lz            Xlo            Xhi            Ylo            Yhi            Zlo            Zhi           Volume           Dt            Time           CPU           T/CPU          S/CPU         CPULeft
7710000   2308.0552     -55.283444     -12236931       0.27285407     6872.9942     -12230058       1301.1842      1301.1842      1301.1842      1349.4079      2650.5921      1349.4079      2650.5921      1349.4079      2650.5921      2.2030096e+09  0.25           2685000        0              0              0              0
Averages over the last 751 of 1501 rows, steps 7860000 to 8010000:
Temp Press PotEng Density KinEng TotEng Lx Ly Lz Xlo Xhi Ylo Yhi Zlo Zhi Volume Dt
314.993 0.997452 -1.29954e+07 0.302588 937.995 -1.29945e+07 1257.12 1257.12 1257.12 1371.44 2628.56 1371.44 2628.56 1371.44 2628.56 1.9868e+09 0.25
Loop time of 9.86891 on 4 procs for 300000 steps with 1000 atoms

# run_style
run_style verlet

# write restart
write_restart ./pgnpmf/3070/equpmf7.res
System init for write_restart ...
Generated 0 of 1 mixed pair_coeff terms from geometric mixing rule
