LAMMPS (23 Jun 2022 - Update 1)
# Read restart
read_restart ./pgnpmf/3070/equpmf59.res
Reading restart file ...
  restart file = 23 Jun 2022, LAMMPS = 23 Jun 2022
  restoring atom style atomic from restart
  orthogonal box = (1650.5445 1650.5445 1650.5445) to (2349.4555 2349.4555 2349.4555)
  restoring pair style table from restart
  1000 atoms
  read_restart CPU = 0.008 seconds

# Settings

pair_style table spline 9941

pair_coeff 1 1 ./pgnpmf/N20.txt DE_GNP 75.6
pair_coeff 2 2 ./pgnpmf/N100.txt DE_GNP 115.92
pair_coeff 1 2 ./pgnpmf/mixed_potential.txt DE_GNP 95.66

#Neigh_list Calc Frequency

neigh_modify delay 0 every 1 check yes

# Saving Frequency (50 frames)

variable ts_save equal 5000

# Dump
#dump_modify 1 first no sort id
dump 2 all cfg 50000 ./pgnpmf/3070/equilibration/trajectory/dumpgen.tens_*.cfg mass type xs ys zs fx fy fz
dump_modify 2 element N20 N100

# thermo_style
thermo_style custom step temp press pe density ke etotal lx ly lz xlo xhi ylo yhi zlo zhi vol dt time cpu tpcpu spcpu cpuremain

# run info
timestep 0.25
thermo 200

# fix

fix 1 all momentum 1000 linear 1 1 1 angular
variable T equal 300
fix 2 all nvt temp 300 370000 100.0

run 100000
Generated 0 of 1 mixed pair_coeff terms from geometric mixing rule
Unused restart file global fix info:
  fix style: npt, fix ID: 5
  update every 1 steps, delay 0 steps, check yes
Step          Temp          Press          PotEng        Density         KinEng         TotEng           Lx             Ly             Lz            Xlo            Xhi            Ylo            Yhi            Zlo            Zhi           Volume           Dt            Time           CPU           T/CPU          S/CPU         CPULeft
60010000   297.23328     -0.11271047    -44771355       1.7606832      885.10996     -44770470       698.91099      698.91099      698.91099      1650.5445      2349.4555      1650.5445      2349.4555      1650.5445      2349.4555      3.4140164e+08  0.25           15760000       0              0              0              0
Averages over the last 251 of 501 rows, steps 60060000 to 60110000:
Temp Press PotEng Density KinEng TotEng Lx Ly Lz Xlo Xhi Ylo Yhi Zlo Zhi Volume Dt
276749 1806.11 -4.4118e+07 1.76068 824111 -4.32939e+07 698.911 698.911 698.911 1650.54 2349.46 1650.54 2349.46 1650.54 2349.46 3.41402e+08 0.25
Loop time of 5.46875 on 4 procs for 100000 steps with 1000 atoms

unfix 2

fix 3 all nvt temp 370000 370000 $(100.0*dt) #iso 1.0 1.0 $(1000.0*dt)
fix 3 all nvt temp 370000 370000 25

run 500000
Generated 0 of 1 mixed pair_coeff terms from geometric mixing rule
Step          Temp          Press          PotEng        Density         KinEng         TotEng           Lx             Ly             Lz            Xlo            Xhi            Ylo            Yhi            Zlo            Zhi           Volume           Dt            Time           CPU           T/CPU          S/CPU         CPULeft
60110000   369985.62      2547.1173     -43891677       1.7606832      1101754       -42789923       698.91099      698.91099      698.91099      1650.5445      2349.4555      1650.5445      2349.4555      1650.5445      2349.4555      3.4140164e+08  0.25           15785000       0              0              0              0
Averages over the last 1251 of 2501 rows, steps 60360000 to 60610000:
Temp Press PotEng Density KinEng TotEng Lx Ly Lz Xlo Xhi Ylo Yhi Zlo Zhi Volume Dt
370186 2221.08 -4.36576e+07 1.76068 1.10235e+06 -4.25553e+07 698.911 698.911 698.911 1650.54 2349.46 1650.54 2349.46 1650.54 2349.46 3.41402e+08 0.25
Loop time of 27.458 on 4 procs for 500000 steps with 1000 atoms

unfix 3

fix 4 all nvt temp 370000 300 100.0

run 100000
Generated 0 of 1 mixed pair_coeff terms from geometric mixing rule
Step          Temp          Press          PotEng        Density         KinEng         TotEng           Lx             Ly             Lz            Xlo            Xhi            Ylo            Yhi            Zlo            Zhi           Volume           Dt            Time           CPU           T/CPU          S/CPU         CPULeft
60610000   363373.36      2218.5481     -43616099       1.7606832      1082063.8     -42534036       698.91099      698.91099      698.91099      1650.5445      2349.4555      1650.5445      2349.4555      1650.5445      2349.4555      3.4140164e+08  0.25           15910000       0              0              0              0
Averages over the last 251 of 501 rows, steps 60660000 to 60710000:
Temp Press PotEng Density KinEng TotEng Lx Ly Lz Xlo Xhi Ylo Yhi Zlo Zhi Volume Dt
93675 592.932 -4.43883e+07 1.76068 278948 -4.41094e+07 698.911 698.911 698.911 1650.54 2349.46 1650.54 2349.46 1650.54 2349.46 3.41402e+08 0.25
Loop time of 5.42354 on 4 procs for 100000 steps with 1000 atoms

unfix 4

fix 5 all npt temp 300 300 $(100.0*dt) iso 1.0 1.0 $(1000.0*dt)
fix 5 all npt temp 300 300 25 iso 1.0 1.0 $(1000.0*dt)
fix 5 all npt temp 300 300 25 iso 1.0 1.0 250

run 300000
Generated 0 of 1 mixed pair_coeff terms from geometric mixing rule
Step          Temp          Press          PotEng        Density         KinEng         TotEng           Lx             Ly             Lz            Xlo            Xhi            Ylo            Yhi            Zlo            Zhi           Volume           Dt            Time           CPU           T/CPU          S/CPU         CPULeft
60710000   2362.1782      98.306506     -44594447       1.7606832      7034.1632     -44587413       698.91099      698.91099      698.91099      1650.5445      2349.4555      1650.5445      2349.4555      1650.5445      2349.4555      3.4140164e+08  0.25           15935000       0              0              0              0
Averages over the last 751 of 1501 rows, steps 60860000 to 61010000:
Temp Press PotEng Density KinEng TotEng Lx Ly Lz Xlo Xhi Ylo Yhi Zlo Zhi Volume Dt
301.694 0.88336 -4.47296e+07 1.76188 898.394 -4.47287e+07 698.753 698.753 698.753 1650.62 2349.38 1650.62 2349.38 1650.62 2349.38 3.4117e+08 0.25
Loop time of 19.0366 on 4 procs for 300000 steps with 1000 atoms

# run_style
run_style verlet

# write restart
write_restart ./pgnpmf/3070/equpmf60.res
System init for write_restart ...
Generated 0 of 1 mixed pair_coeff terms from geometric mixing rule
