LAMMPS (23 Jun 2022 - Update 1)
# Read restart
read_restart ./pgnpmf/3070/equpmf14.res
Reading restart file ...
  restart file = 23 Jun 2022, LAMMPS = 23 Jun 2022
  restoring atom style atomic from restart
  orthogonal box = (1472.0623 1472.0623 1472.0623) to (2527.9377 2527.9377 2527.9377)
  restoring pair style table from restart
  1000 atoms
  read_restart CPU = 0.009 seconds

# Settings

pair_style table spline 9941

pair_coeff 1 1 ./pgnpmf/N20.txt DE_GNP 75.6
pair_coeff 2 2 ./pgnpmf/N100.txt DE_GNP 115.92
pair_coeff 1 2 ./pgnpmf/mixed_potential.txt DE_GNP 95.66

#Neigh_list Calc Frequency

neigh_modify delay 0 every 1 check yes

# Saving Frequency (50 frames)

variable ts_save equal 5000

# Dump
#dump_modify 1 first no sort id
dump 2 all cfg 50000 ./pgnpmf/3070/equilibration/trajectory/dumpgen.tens_*.cfg mass type xs ys zs fx fy fz
dump_modify 2 element N20 N100

# thermo_style
thermo_style custom step temp press pe density ke etotal lx ly lz xlo xhi ylo yhi zlo zhi vol dt time cpu tpcpu spcpu cpuremain

# run info
timestep 0.25
thermo 200

# fix

fix 1 all momentum 1000 linear 1 1 1 angular
variable T equal 300
fix 2 all nvt temp 300 370000 100.0

run 100000
Generated 0 of 1 mixed pair_coeff terms from geometric mixing rule
Unused restart file global fix info:
  fix style: npt, fix ID: 5
  update every 1 steps, delay 0 steps, check yes
Step          Temp          Press          PotEng        Density         KinEng         TotEng           Lx             Ly             Lz            Xlo            Xhi            Ylo            Yhi            Zlo            Zhi           Volume           Dt            Time           CPU           T/CPU          S/CPU         CPULeft
15010000   309.85321      1.2207766     -29451747       0.51063303     922.68996     -29450824       1055.8753      1055.8753      1055.8753      1472.0623      2527.9377      1472.0623      2527.9377      1472.0623      2527.9377      1.1771666e+09  0.25           4510000        0              0              0              0
Averages over the last 251 of 501 rows, steps 15060000 to 15110000:
Temp Press PotEng Density KinEng TotEng Lx Ly Lz Xlo Xhi Ylo Yhi Zlo Zhi Volume Dt
277016 100.246 -2.94902e+07 0.510633 824907 -2.86653e+07 1055.88 1055.88 1055.88 1472.06 2527.94 1472.06 2527.94 1472.06 2527.94 1.17717e+09 0.25
Loop time of 3.76361 on 4 procs for 100000 steps with 1000 atoms

unfix 2

fix 3 all nvt temp 370000 370000 $(100.0*dt) #iso 1.0 1.0 $(1000.0*dt)
fix 3 all nvt temp 370000 370000 25

run 500000
Generated 0 of 1 mixed pair_coeff terms from geometric mixing rule
Step          Temp          Press          PotEng        Density         KinEng         TotEng           Lx             Ly             Lz            Xlo            Xhi            Ylo            Yhi            Zlo            Zhi           Volume           Dt            Time           CPU           T/CPU          S/CPU         CPULeft
15110000   355179.23      17.82885      -29406860       0.51063303     1057663.1     -28349197       1055.8753      1055.8753      1055.8753      1472.0623      2527.9377      1472.0623      2527.9377      1472.0623      2527.9377      1.1771666e+09  0.25           4535000        0              0              0              0
Averages over the last 1251 of 2501 rows, steps 15360000 to 15610000:
Temp Press PotEng Density KinEng TotEng Lx Ly Lz Xlo Xhi Ylo Yhi Zlo Zhi Volume Dt
370008 8.07492 -2.84815e+07 0.510633 1.10182e+06 -2.73797e+07 1055.88 1055.88 1055.88 1472.06 2527.94 1472.06 2527.94 1472.06 2527.94 1.17717e+09 0.25
Loop time of 19.4241 on 4 procs for 500000 steps with 1000 atoms

unfix 3

fix 4 all nvt temp 370000 300 100.0

run 100000
Generated 0 of 1 mixed pair_coeff terms from geometric mixing rule
Step          Temp          Press          PotEng        Density         KinEng         TotEng           Lx             Ly             Lz            Xlo            Xhi            Ylo            Yhi            Zlo            Zhi           Volume           Dt            Time           CPU           T/CPU          S/CPU         CPULeft
15610000   350933.27     -21.207671     -28488480       0.51063303     1045019.3     -27443461       1055.8753      1055.8753      1055.8753      1472.0623      2527.9377      1472.0623      2527.9377      1472.0623      2527.9377      1.1771666e+09  0.25           4660000        0              0              0              0
Averages over the last 251 of 501 rows, steps 15660000 to 15710000:
Temp Press PotEng Density KinEng TotEng Lx Ly Lz Xlo Xhi Ylo Yhi Zlo Zhi Volume Dt
93808.8 -148.263 -2.95479e+07 0.510633 279346 -2.92686e+07 1055.88 1055.88 1055.88 1472.06 2527.94 1472.06 2527.94 1472.06 2527.94 1.17717e+09 0.25
Loop time of 3.98189 on 4 procs for 100000 steps with 1000 atoms

unfix 4

fix 5 all npt temp 300 300 $(100.0*dt) iso 1.0 1.0 $(1000.0*dt)
fix 5 all npt temp 300 300 25 iso 1.0 1.0 $(1000.0*dt)
fix 5 all npt temp 300 300 25 iso 1.0 1.0 250

run 300000
Generated 0 of 1 mixed pair_coeff terms from geometric mixing rule
Step          Temp          Press          PotEng        Density         KinEng         TotEng           Lx             Ly             Lz            Xlo            Xhi            Ylo            Yhi            Zlo            Zhi           Volume           Dt            Time           CPU           T/CPU          S/CPU         CPULeft
15710000   2352.0522     -189.80295     -29898745       0.51063303     7004.0097     -29891741       1055.8753      1055.8753      1055.8753      1472.0623      2527.9377      1472.0623      2527.9377      1472.0623      2527.9377      1.1771666e+09  0.25           4685000        0              0              0              0
Averages over the last 751 of 1501 rows, steps 15860000 to 16010000:
Temp Press PotEng Density KinEng TotEng Lx Ly Lz Xlo Xhi Ylo Yhi Zlo Zhi Volume Dt
312.525 0.980418 -3.05318e+07 0.537046 930.646 -3.05309e+07 1038.28 1038.28 1038.28 1480.86 2519.14 1480.86 2519.14 1480.86 2519.14 1.11929e+09 0.25
Loop time of 15.1547 on 4 procs for 300000 steps with 1000 atoms

# run_style
run_style verlet

# write restart
write_restart ./pgnpmf/3070/equpmf15.res
System init for write_restart ...
Generated 0 of 1 mixed pair_coeff terms from geometric mixing rule
