LAMMPS (23 Jun 2022 - Update 1)
# Read restart
read_restart ./pgnpmf/28/equpmf69.res
Reading restart file ...
  restart file = 23 Jun 2022, LAMMPS = 23 Jun 2022
  restoring atom style atomic from restart
  orthogonal box = (1574.709 1574.709 1574.709) to (2425.291 2425.291 2425.291)
  restoring pair style table from restart
  1000 atoms
  read_restart CPU = 0.006 seconds

# Settings

pair_style table spline 9941

pair_coeff 1 1 ./pgnpmf/N20.txt DE_GNP 75.6
pair_coeff 2 2 ./pgnpmf/N100.txt DE_GNP 115.92
pair_coeff 1 2 ./pgnpmf/mixed_potential.txt DE_GNP 95.66

#Neigh_list Calc Frequency

neigh_modify delay 0 every 1 check yes

# Saving Frequency (50 frames)

variable ts_save equal 5000

variable nts equal 5000/0.25
variable medium equal 20000*3
variable long equal 20000*5

# Dump
#dump_modify 1 first no sort id
dump 2 all cfg 50000 ./pgnpmf/28/equilibration/trajectory/dumpequ.tens_*.cfg mass type xs ys zs fx fy fz
dump_modify 2 element N20 N100

# thermo_style
thermo_style custom step temp press pe density ke etotal lx ly lz xlo xhi ylo yhi zlo zhi vol dt time cpu tpcpu spcpu cpuremain

# run info
timestep 0.25
thermo 5000

# fix

fix 1 all momentum 1000 linear 1 1 1 angular
variable T equal 300
fix 2 all nvt temp 300 370000 100.0

run 20000
Generated 0 of 1 mixed pair_coeff terms from geometric mixing rule
Unused restart file global fix info:
  fix style: npt, fix ID: 5
  update every 1 steps, delay 0 steps, check yes
Step          Temp          Press          PotEng        Density         KinEng         TotEng           Lx             Ly             Lz            Xlo            Xhi            Ylo            Yhi            Zlo            Zhi           Volume           Dt            Time           CPU           T/CPU          S/CPU         CPULeft
13860000   342.4737       0.074342192   -39672490       1.0308044      1019.8282     -39671470       850.58206      850.58206      850.58206      1574.709       2425.291       1574.709       2425.291       1574.709       2425.291       6.1538748e+08  0.25           3510000        0              0              0              0
Loop time of 1.25995 on 4 procs for 20000 steps with 1000 atoms

unfix 2

fix 3 all nvt temp 370000 370000 $(100.0*dt) #iso 1.0 1.0 $(1000.0*dt)
fix 3 all nvt temp 370000 370000 25

run 100000
Generated 0 of 1 mixed pair_coeff terms from geometric mixing rule
Step          Temp          Press          PotEng        Density         KinEng         TotEng           Lx             Ly             Lz            Xlo            Xhi            Ylo            Yhi            Zlo            Zhi           Volume           Dt            Time           CPU           T/CPU          S/CPU         CPULeft
13880000   365164.44      4.432444      -39780808       1.0308044      1087397.3     -38693411       850.58206      850.58206      850.58206      1574.709       2425.291       1574.709       2425.291       1574.709       2425.291       6.1538748e+08  0.25           3515000        0              0              0              0
Averages over the last 11 of 21 rows, steps 13930000 to 13980000:
Temp Press PotEng Density KinEng TotEng Lx Ly Lz Xlo Xhi Ylo Yhi Zlo Zhi Volume Dt
365879 93.6317 -3.94306e+07 1.0308 1.08953e+06 -3.8341e+07 850.582 850.582 850.582 1574.71 2425.29 1574.71 2425.29 1574.71 2425.29 6.15387e+08 0.25
Loop time of 6.37227 on 4 procs for 100000 steps with 1000 atoms

unfix 3

fix 4 all nvt temp 370000 300 100.0

run 20000
Generated 0 of 1 mixed pair_coeff terms from geometric mixing rule
Step          Temp          Press          PotEng        Density         KinEng         TotEng           Lx             Ly             Lz            Xlo            Xhi            Ylo            Yhi            Zlo            Zhi           Volume           Dt            Time           CPU           T/CPU          S/CPU         CPULeft
13980000   372880.02      45.266655     -39220480       1.0308044      1110373       -38110107       850.58206      850.58206      850.58206      1574.709       2425.291       1574.709       2425.291       1574.709       2425.291       6.1538748e+08  0.25           3540000        0              0              0              0
Loop time of 1.26464 on 4 procs for 20000 steps with 1000 atoms

unfix 4

fix 5 all npt temp 300 300 $(100.0*dt) iso 1.0 1.0 $(1000.0*dt)
fix 5 all npt temp 300 300 25 iso 1.0 1.0 $(1000.0*dt)
fix 5 all npt temp 300 300 25 iso 1.0 1.0 250

run 60000
Generated 0 of 1 mixed pair_coeff terms from geometric mixing rule
Step          Temp          Press          PotEng        Density         KinEng         TotEng           Lx             Ly             Lz            Xlo            Xhi            Ylo            Yhi            Zlo            Zhi           Volume           Dt            Time           CPU           T/CPU          S/CPU         CPULeft
14000000   9259.8969     -434.31247     -39390567       1.0308044      27574.392     -39362993       850.58206      850.58206      850.58206      1574.709       2425.291       1574.709       2425.291       1574.709       2425.291       6.1538748e+08  0.25           3545000        0              0              0              0
Averages over the last 7 of 13 rows, steps 14030000 to 14060000:
Temp Press PotEng Density KinEng TotEng Lx Ly Lz Xlo Xhi Ylo Yhi Zlo Zhi Volume Dt
343.059 0.984517 -3.99818e+07 1.062 1021.57 -3.99808e+07 842.172 842.172 842.172 1578.91 2421.09 1578.91 2421.09 1578.91 2421.09 5.97315e+08 0.25
Loop time of 4.57581 on 4 procs for 60000 steps with 1000 atoms

# run_style
run_style verlet

# write restart
write_restart ./pgnpmf/28/equpmf70.res
System init for write_restart ...
Generated 0 of 1 mixed pair_coeff terms from geometric mixing rule
