LAMMPS (23 Jun 2022 - Update 1)
# Read restart
read_restart ./pgnpmf/28/equpmf25.res
Reading restart file ...
  restart file = 23 Jun 2022, LAMMPS = 23 Jun 2022
  restoring atom style atomic from restart
  orthogonal box = (1206.4879 1206.4879 1206.4879) to (2793.5121 2793.5121 2793.5121)
  restoring pair style table from restart
  1000 atoms
  read_restart CPU = 0.005 seconds

# Settings

pair_style table spline 9941

pair_coeff 1 1 ./pgnpmf/N20.txt DE_GNP 75.6
pair_coeff 2 2 ./pgnpmf/N100.txt DE_GNP 115.92
pair_coeff 1 2 ./pgnpmf/mixed_potential.txt DE_GNP 95.66

#Neigh_list Calc Frequency

neigh_modify delay 0 every 1 check yes

# Saving Frequency (50 frames)

variable ts_save equal 5000

variable nts equal 5000/0.25
variable medium equal 20000*3
variable long equal 20000*5

# Dump
#dump_modify 1 first no sort id
dump 2 all cfg 50000 ./pgnpmf/28/equilibration/trajectory/dumpequ.tens_*.cfg mass type xs ys zs fx fy fz
dump_modify 2 element N20 N100

# thermo_style
thermo_style custom step temp press pe density ke etotal lx ly lz xlo xhi ylo yhi zlo zhi vol dt time cpu tpcpu spcpu cpuremain

# run info
timestep 0.25
thermo 5000

# fix

fix 1 all momentum 1000 linear 1 1 1 angular
variable T equal 300
fix 2 all nvt temp 300 370000 100.0

run 20000
Generated 0 of 1 mixed pair_coeff terms from geometric mixing rule
Unused restart file global fix info:
  fix style: npt, fix ID: 5
  update every 1 steps, delay 0 steps, check yes
Step          Temp          Press          PotEng        Density         KinEng         TotEng           Lx             Ly             Lz            Xlo            Xhi            Ylo            Yhi            Zlo            Zhi           Volume           Dt            Time           CPU           T/CPU          S/CPU         CPULeft
5060000   340.98614      0.96996299    -27824352       0.15869905     1015.3985     -27823337       1587.0242      1587.0242      1587.0242      1206.4879      2793.5121      1206.4879      2793.5121      1206.4879      2793.5121      3.9971515e+09  0.25           1310000        0              0              0              0
Loop time of 0.867733 on 4 procs for 20000 steps with 1000 atoms

unfix 2

fix 3 all nvt temp 370000 370000 $(100.0*dt) #iso 1.0 1.0 $(1000.0*dt)
fix 3 all nvt temp 370000 370000 25

run 100000
Generated 0 of 1 mixed pair_coeff terms from geometric mixing rule
Step          Temp          Press          PotEng        Density         KinEng         TotEng           Lx             Ly             Lz            Xlo            Xhi            Ylo            Yhi            Zlo            Zhi           Volume           Dt            Time           CPU           T/CPU          S/CPU         CPULeft
5080000   365217.36     -9.0755976     -27977525       0.15869905     1087554.9     -26889970       1587.0242      1587.0242      1587.0242      1206.4879      2793.5121      1206.4879      2793.5121      1206.4879      2793.5121      3.9971515e+09  0.25           1315000        0              0              0              0
Averages over the last 11 of 21 rows, steps 5130000 to 5180000:
Temp Press PotEng Density KinEng TotEng Lx Ly Lz Xlo Xhi Ylo Yhi Zlo Zhi Volume Dt
369925 -1.16617 -2.82494e+07 0.158699 1.10157e+06 -2.71479e+07 1587.02 1587.02 1587.02 1206.49 2793.51 1206.49 2793.51 1206.49 2793.51 3.99715e+09 0.25
Loop time of 4.44673 on 4 procs for 100000 steps with 1000 atoms

unfix 3

fix 4 all nvt temp 370000 300 100.0

run 20000
Generated 0 of 1 mixed pair_coeff terms from geometric mixing rule
Step          Temp          Press          PotEng        Density         KinEng         TotEng           Lx             Ly             Lz            Xlo            Xhi            Ylo            Yhi            Zlo            Zhi           Volume           Dt            Time           CPU           T/CPU          S/CPU         CPULeft
5180000   365545.94     -2.416466      -28129598       0.15869905     1088533.4     -27041065       1587.0242      1587.0242      1587.0242      1206.4879      2793.5121      1206.4879      2793.5121      1206.4879      2793.5121      3.9971515e+09  0.25           1340000        0              0              0              0
Loop time of 0.880974 on 4 procs for 20000 steps with 1000 atoms

unfix 4

fix 5 all npt temp 300 300 $(100.0*dt) iso 1.0 1.0 $(1000.0*dt)
fix 5 all npt temp 300 300 25 iso 1.0 1.0 $(1000.0*dt)
fix 5 all npt temp 300 300 25 iso 1.0 1.0 250

run 60000
Generated 0 of 1 mixed pair_coeff terms from geometric mixing rule
Step          Temp          Press          PotEng        Density         KinEng         TotEng           Lx             Ly             Lz            Xlo            Xhi            Ylo            Yhi            Zlo            Zhi           Volume           Dt            Time           CPU           T/CPU          S/CPU         CPULeft
5200000   9058.9688     -64.530471     -28288370       0.15869905     26976.062     -28261394       1587.0242      1587.0242      1587.0242      1206.4879      2793.5121      1206.4879      2793.5121      1206.4879      2793.5121      3.9971515e+09  0.25           1345000        0              0              0              0
Averages over the last 7 of 13 rows, steps 5230000 to 5260000:
Temp Press PotEng Density KinEng TotEng Lx Ly Lz Xlo Xhi Ylo Yhi Zlo Zhi Volume Dt
343.244 1.01772 -2.8903e+07 0.165855 1022.12 -2.8902e+07 1563.87 1563.87 1563.87 1218.07 2781.93 1218.07 2781.93 1218.07 2781.93 3.82471e+09 0.25
Loop time of 3.36637 on 4 procs for 60000 steps with 1000 atoms

# run_style
run_style verlet

# write restart
write_restart ./pgnpmf/28/equpmf26.res
System init for write_restart ...
Generated 0 of 1 mixed pair_coeff terms from geometric mixing rule
