LAMMPS (23 Jun 2022 - Update 1)
# Read restart
read_restart ./pgnpmf/28/equpmf64.res
Reading restart file ...
  restart file = 23 Jun 2022, LAMMPS = 23 Jun 2022
  restoring atom style atomic from restart
  orthogonal box = (1546.5654 1546.5654 1546.5654) to (2453.4346 2453.4346 2453.4346)
  restoring pair style table from restart
  1000 atoms
  read_restart CPU = 0.004 seconds

# Settings

pair_style table spline 9941

pair_coeff 1 1 ./pgnpmf/N20.txt DE_GNP 75.6
pair_coeff 2 2 ./pgnpmf/N100.txt DE_GNP 115.92
pair_coeff 1 2 ./pgnpmf/mixed_potential.txt DE_GNP 95.66

#Neigh_list Calc Frequency

neigh_modify delay 0 every 1 check yes

# Saving Frequency (50 frames)

variable ts_save equal 5000

variable nts equal 5000/0.25
variable medium equal 20000*3
variable long equal 20000*5

# Dump
#dump_modify 1 first no sort id
dump 2 all cfg 50000 ./pgnpmf/28/equilibration/trajectory/dumpequ.tens_*.cfg mass type xs ys zs fx fy fz
dump_modify 2 element N20 N100

# thermo_style
thermo_style custom step temp press pe density ke etotal lx ly lz xlo xhi ylo yhi zlo zhi vol dt time cpu tpcpu spcpu cpuremain

# run info
timestep 0.25
thermo 5000

# fix

fix 1 all momentum 1000 linear 1 1 1 angular
variable T equal 300
fix 2 all nvt temp 300 370000 100.0

run 20000
Generated 0 of 1 mixed pair_coeff terms from geometric mixing rule
Unused restart file global fix info:
  fix style: npt, fix ID: 5
  update every 1 steps, delay 0 steps, check yes
Step          Temp          Press          PotEng        Density         KinEng         TotEng           Lx             Ly             Lz            Xlo            Xhi            Ylo            Yhi            Zlo            Zhi           Volume           Dt            Time           CPU           T/CPU          S/CPU         CPULeft
12860000   342.7884       0.74322589    -37900346       0.8505327      1020.7653     -37899325       906.86917      906.86917      906.86917      1546.5654      2453.4346      1546.5654      2453.4346      1546.5654      2453.4346      7.4581981e+08  0.25           3260000        0              0              0              0
Loop time of 1.18517 on 4 procs for 20000 steps with 1000 atoms

unfix 2

fix 3 all nvt temp 370000 370000 $(100.0*dt) #iso 1.0 1.0 $(1000.0*dt)
fix 3 all nvt temp 370000 370000 25

run 100000
Generated 0 of 1 mixed pair_coeff terms from geometric mixing rule
Step          Temp          Press          PotEng        Density         KinEng         TotEng           Lx             Ly             Lz            Xlo            Xhi            Ylo            Yhi            Zlo            Zhi           Volume           Dt            Time           CPU           T/CPU          S/CPU         CPULeft
12880000   365300.44     -19.455495     -37951181       0.8505327      1087802.3     -36863379       906.86917      906.86917      906.86917      1546.5654      2453.4346      1546.5654      2453.4346      1546.5654      2453.4346      7.4581981e+08  0.25           3265000        0              0              0              0
Averages over the last 11 of 21 rows, steps 12930000 to 12980000:
Temp Press PotEng Density KinEng TotEng Lx Ly Lz Xlo Xhi Ylo Yhi Zlo Zhi Volume Dt
371950 21.1269 -3.74874e+07 0.850533 1.1076e+06 -3.63798e+07 906.869 906.869 906.869 1546.57 2453.43 1546.57 2453.43 1546.57 2453.43 7.4582e+08 0.25
Loop time of 5.93193 on 4 procs for 100000 steps with 1000 atoms

unfix 3

fix 4 all nvt temp 370000 300 100.0

run 20000
Generated 0 of 1 mixed pair_coeff terms from geometric mixing rule
Step          Temp          Press          PotEng        Density         KinEng         TotEng           Lx             Ly             Lz            Xlo            Xhi            Ylo            Yhi            Zlo            Zhi           Volume           Dt            Time           CPU           T/CPU          S/CPU         CPULeft
12980000   366950.21     -4.7797103     -37141870       0.8505327      1092715.1     -36049155       906.86917      906.86917      906.86917      1546.5654      2453.4346      1546.5654      2453.4346      1546.5654      2453.4346      7.4581981e+08  0.25           3290000        0              0              0              0
Loop time of 1.18306 on 4 procs for 20000 steps with 1000 atoms

unfix 4

fix 5 all npt temp 300 300 $(100.0*dt) iso 1.0 1.0 $(1000.0*dt)
fix 5 all npt temp 300 300 25 iso 1.0 1.0 $(1000.0*dt)
fix 5 all npt temp 300 300 25 iso 1.0 1.0 250

run 60000
Generated 0 of 1 mixed pair_coeff terms from geometric mixing rule
Step          Temp          Press          PotEng        Density         KinEng         TotEng           Lx             Ly             Lz            Xlo            Xhi            Ylo            Yhi            Zlo            Zhi           Volume           Dt            Time           CPU           T/CPU          S/CPU         CPULeft
13000000   9226.4299     -434.7727      -37536863       0.8505327      27474.733     -37509388       906.86917      906.86917      906.86917      1546.5654      2453.4346      1546.5654      2453.4346      1546.5654      2453.4346      7.4581981e+08  0.25           3295000        0              0              0              0
Averages over the last 7 of 13 rows, steps 13030000 to 13060000:
Temp Press PotEng Density KinEng TotEng Lx Ly Lz Xlo Xhi Ylo Yhi Zlo Zhi Volume Dt
344.6 0.543453 -3.8132e+07 0.882475 1026.16 -3.81309e+07 895.794 895.794 895.794 1552.1 2447.9 1552.1 2447.9 1552.1 2447.9 7.18827e+08 0.25
Loop time of 4.28441 on 4 procs for 60000 steps with 1000 atoms

# run_style
run_style verlet

# write restart
write_restart ./pgnpmf/28/equpmf65.res
System init for write_restart ...
Generated 0 of 1 mixed pair_coeff terms from geometric mixing rule
