LAMMPS (23 Jun 2022 - Update 1)
# Read restart
read_restart ./pgnpmf/trial4/2080/equpmf71.res
Reading restart file ...
  restart file = 23 Jun 2022, LAMMPS = 23 Jun 2022
  restoring atom style atomic from restart
  orthogonal box = (1584.6175 1584.6175 1584.6175) to (2415.3825 2415.3825 2415.3825)
  restoring pair style table from restart
  1000 atoms
  read_restart CPU = 0.053 seconds

# Settings

pair_style table spline 9941

pair_coeff 1 1 ./pgnpmf/N20.txt DE_GNP 75.6
pair_coeff 2 2 ./pgnpmf/N100.txt DE_GNP 115.92
pair_coeff 1 2 ./pgnpmf/mixed_potential.txt DE_GNP 95.66

#Neigh_list Calc Frequency

neigh_modify delay 0 every 1 check yes

# Saving Frequency (50 frames)

variable ts_save equal 50000

variable nts equal 50000/0.1
variable medium equal 500000*3
variable long equal 500000*5

# Dump
#dump_modify 1 first no sort id
dump 2 all cfg 50000 ./pgnpmf/trial4/2080/equilibration/trajectory/dumpequ.tens_*.cfg mass type xs ys zs fx fy fz
dump_modify 2 element N20 N100

# thermo_style
thermo_style custom step temp press pe density ke etotal lx ly lz xlo xhi ylo yhi zlo zhi vol dt time cpu tpcpu spcpu cpuremain

# run info
timestep 0.1
thermo 5000

# fix

fix 1 all momentum 1000 linear 1 1 1 angular
variable T equal 300
fix 2 all nvt temp 300 370000 100.0

run 500000
Generated 0 of 1 mixed pair_coeff terms from geometric mixing rule
Unused restart file global fix info:
  fix style: npt, fix ID: 5
  update every 1 steps, delay 0 steps, check yes
Step          Temp          Press          PotEng        Density         KinEng         TotEng           Lx             Ly             Lz            Xlo            Xhi            Ylo            Yhi            Zlo            Zhi           Volume           Dt            Time           CPU           T/CPU          S/CPU         CPULeft
14260000   340.61987      1.5869309     -40483779       1.1063448      1014.3078     -40482764       830.7649       830.7649       830.7649       1584.6175      2415.3825      1584.6175      2415.3825      1584.6175      2415.3825      5.7336928e+08  0.1            3610000        0              0              0              0
Averages over the last 51 of 101 rows, steps 14510000 to 14760000:
Temp Press PotEng Density KinEng TotEng Lx Ly Lz Xlo Xhi Ylo Yhi Zlo Zhi Volume Dt
277761 93.4483 -4.0894e+07 1.10634 827125 -4.00668e+07 830.765 830.765 830.765 1584.62 2415.38 1584.62 2415.38 1584.62 2415.38 5.73369e+08 0.1
Loop time of 42.1947 on 4 procs for 500000 steps with 1000 atoms

unfix 2

fix 3 all nvt temp 370000 370000 $(100.0*dt) #iso 1.0 1.0 $(1000.0*dt)
fix 3 all nvt temp 370000 370000 10

run 2500000
Generated 0 of 1 mixed pair_coeff terms from geometric mixing rule
Step          Temp          Press          PotEng        Density         KinEng         TotEng           Lx             Ly             Lz            Xlo            Xhi            Ylo            Yhi            Zlo            Zhi           Volume           Dt            Time           CPU           T/CPU          S/CPU         CPULeft
14760000   380788.16      125.12634     -40307136       1.1063448      1133922.1     -39173214       830.7649       830.7649       830.7649       1584.6175      2415.3825      1584.6175      2415.3825      1584.6175      2415.3825      5.7336928e+08  0.1            3660000        0              0              0              0
Averages over the last 251 of 501 rows, steps 16010000 to 17260000:
Temp Press PotEng Density KinEng TotEng Lx Ly Lz Xlo Xhi Ylo Yhi Zlo Zhi Volume Dt
369635 -74.2854 -3.97696e+07 1.10634 1.10071e+06 -3.86689e+07 830.765 830.765 830.765 1584.62 2415.38 1584.62 2415.38 1584.62 2415.38 5.73369e+08 0.1
Loop time of 227.37 on 4 procs for 2500000 steps with 1000 atoms

unfix 3

fix 4 all nvt temp 370000 300 100.0

run 500000
Generated 0 of 1 mixed pair_coeff terms from geometric mixing rule
Step          Temp          Press          PotEng        Density         KinEng         TotEng           Lx             Ly             Lz            Xlo            Xhi            Ylo            Yhi            Zlo            Zhi           Volume           Dt            Time           CPU           T/CPU          S/CPU         CPULeft
17260000   381439.67     -126.71777     -39979076       1.1063448      1135862.2     -38843214       830.7649       830.7649       830.7649       1584.6175      2415.3825      1584.6175      2415.3825      1584.6175      2415.3825      5.7336928e+08  0.1            3910000        0              0              0              0
Averages over the last 51 of 101 rows, steps 17510000 to 17760000:
Temp Press PotEng Density KinEng TotEng Lx Ly Lz Xlo Xhi Ylo Yhi Zlo Zhi Volume Dt
92949.3 -527.806 -4.11701e+07 1.10634 276787 -4.08933e+07 830.765 830.765 830.765 1584.62 2415.38 1584.62 2415.38 1584.62 2415.38 5.73369e+08 0.1
Loop time of 34.2554 on 4 procs for 500000 steps with 1000 atoms

unfix 4

fix 5 all npt temp 300 300 $(100.0*dt) iso 1.0 1.0 $(1000.0*dt)
fix 5 all npt temp 300 300 10 iso 1.0 1.0 $(1000.0*dt)
fix 5 all npt temp 300 300 10 iso 1.0 1.0 100

run 1500000
Generated 0 of 1 mixed pair_coeff terms from geometric mixing rule
Step          Temp          Press          PotEng        Density         KinEng         TotEng           Lx             Ly             Lz            Xlo            Xhi            Ylo            Yhi            Zlo            Zhi           Volume           Dt            Time           CPU           T/CPU          S/CPU         CPULeft
17760000   1359.1728     -589.13818     -41686932       1.1063448      4047.3844     -41682885       830.7649       830.7649       830.7649       1584.6175      2415.3825      1584.6175      2415.3825      1584.6175      2415.3825      5.7336928e+08  0.1            3960000        0              0              0              0
Averages over the last 151 of 301 rows, steps 18510000 to 19260000:
Temp Press PotEng Density KinEng TotEng Lx Ly Lz Xlo Xhi Ylo Yhi Zlo Zhi Volume Dt
300.89 0.976521 -4.2685e+07 1.17841 896 -4.26841e+07 813.476 813.476 813.476 1593.26 2406.74 1593.26 2406.74 1593.26 2406.74 5.38317e+08 0.1
Loop time of 124.001 on 4 procs for 1500000 steps with 1000 atoms

# run_style
run_style verlet

# write restart
write_restart ./pgnpmf/trial4/2080/equpmf72.res
System init for write_restart ...
Generated 0 of 1 mixed pair_coeff terms from geometric mixing rule
