LAMMPS (23 Jun 2022 - Update 1)
# Read restart
read_restart ./pgnpmf/28/equpmf40.res
Reading restart file ...
  restart file = 23 Jun 2022, LAMMPS = 23 Jun 2022
  restoring atom style atomic from restart
  orthogonal box = (1366.6272 1366.6272 1366.6272) to (2633.3728 2633.3728 2633.3728)
  restoring pair style table from restart
  1000 atoms
  read_restart CPU = 0.004 seconds

# Settings

pair_style table spline 9941

pair_coeff 1 1 ./pgnpmf/N20.txt DE_GNP 75.6
pair_coeff 2 2 ./pgnpmf/N100.txt DE_GNP 115.92
pair_coeff 1 2 ./pgnpmf/mixed_potential.txt DE_GNP 95.66

#Neigh_list Calc Frequency

neigh_modify delay 0 every 1 check yes

# Saving Frequency (50 frames)

variable ts_save equal 5000

variable nts equal 5000/0.25
variable medium equal 20000*3
variable long equal 20000*5

# Dump
#dump_modify 1 first no sort id
dump 2 all cfg 50000 ./pgnpmf/28/equilibration/trajectory/dumpequ.tens_*.cfg mass type xs ys zs fx fy fz
dump_modify 2 element N20 N100

# thermo_style
thermo_style custom step temp press pe density ke etotal lx ly lz xlo xhi ylo yhi zlo zhi vol dt time cpu tpcpu spcpu cpuremain

# run info
timestep 0.25
thermo 5000

# fix

fix 1 all momentum 1000 linear 1 1 1 angular
variable T equal 300
fix 2 all nvt temp 300 370000 100.0

run 20000
Generated 0 of 1 mixed pair_coeff terms from geometric mixing rule
Unused restart file global fix info:
  fix style: npt, fix ID: 5
  update every 1 steps, delay 0 steps, check yes
Step          Temp          Press          PotEng        Density         KinEng         TotEng           Lx             Ly             Lz            Xlo            Xhi            Ylo            Yhi            Zlo            Zhi           Volume           Dt            Time           CPU           T/CPU          S/CPU         CPULeft
8060000   342.52115      1.1237842     -34008210       0.31207338     1019.9695     -34007190       1266.7456      1266.7456      1266.7456      1366.6272      2633.3728      1366.6272      2633.3728      1366.6272      2633.3728      2.0326762e+09  0.25           2060000        0              0              0              0
Loop time of 0.977489 on 4 procs for 20000 steps with 1000 atoms

unfix 2

fix 3 all nvt temp 370000 370000 $(100.0*dt) #iso 1.0 1.0 $(1000.0*dt)
fix 3 all nvt temp 370000 370000 25

run 100000
Generated 0 of 1 mixed pair_coeff terms from geometric mixing rule
Step          Temp          Press          PotEng        Density         KinEng         TotEng           Lx             Ly             Lz            Xlo            Xhi            Ylo            Yhi            Zlo            Zhi           Volume           Dt            Time           CPU           T/CPU          S/CPU         CPULeft
8080000   365642.2       0.5299839     -33996507       0.31207338     1088820       -32907687       1266.7456      1266.7456      1266.7456      1366.6272      2633.3728      1366.6272      2633.3728      1366.6272      2633.3728      2.0326762e+09  0.25           2065000        0              0              0              0
Averages over the last 11 of 21 rows, steps 8130000 to 8180000:
Temp Press PotEng Density KinEng TotEng Lx Ly Lz Xlo Xhi Ylo Yhi Zlo Zhi Volume Dt
372320 -15.0411 -3.35682e+07 0.312073 1.10871e+06 -3.24595e+07 1266.75 1266.75 1266.75 1366.63 2633.37 1366.63 2633.37 1366.63 2633.37 2.03268e+09 0.25
Loop time of 4.9422 on 4 procs for 100000 steps with 1000 atoms

unfix 3

fix 4 all nvt temp 370000 300 100.0

run 20000
Generated 0 of 1 mixed pair_coeff terms from geometric mixing rule
Step          Temp          Press          PotEng        Density         KinEng         TotEng           Lx             Ly             Lz            Xlo            Xhi            Ylo            Yhi            Zlo            Zhi           Volume           Dt            Time           CPU           T/CPU          S/CPU         CPULeft
8180000   384040.16     -37.444983     -33167441       0.31207338     1143606       -32023835       1266.7456      1266.7456      1266.7456      1366.6272      2633.3728      1366.6272      2633.3728      1366.6272      2633.3728      2.0326762e+09  0.25           2090000        0              0              0              0
Loop time of 0.989393 on 4 procs for 20000 steps with 1000 atoms

unfix 4

fix 5 all npt temp 300 300 $(100.0*dt) iso 1.0 1.0 $(1000.0*dt)
fix 5 all npt temp 300 300 25 iso 1.0 1.0 $(1000.0*dt)
fix 5 all npt temp 300 300 25 iso 1.0 1.0 250

run 60000
Generated 0 of 1 mixed pair_coeff terms from geometric mixing rule
Step          Temp          Press          PotEng        Density         KinEng         TotEng           Lx             Ly             Lz            Xlo            Xhi            Ylo            Yhi            Zlo            Zhi           Volume           Dt            Time           CPU           T/CPU          S/CPU         CPULeft
8200000   9146.1923     -142.77994     -33197956       0.31207338     27235.799     -33170720       1266.7456      1266.7456      1266.7456      1366.6272      2633.3728      1366.6272      2633.3728      1366.6272      2633.3728      2.0326762e+09  0.25           2095000        0              0              0              0
Averages over the last 7 of 13 rows, steps 8230000 to 8260000:
Temp Press PotEng Density KinEng TotEng Lx Ly Lz Xlo Xhi Ylo Yhi Zlo Zhi Volume Dt
345.824 0.98915 -3.38037e+07 0.324771 1029.8 -3.38027e+07 1250.02 1250.02 1250.02 1374.99 2625.01 1374.99 2625.01 1374.99 2625.01 1.95322e+09 0.25
Loop time of 3.72341 on 4 procs for 60000 steps with 1000 atoms

# run_style
run_style verlet

# write restart
write_restart ./pgnpmf/28/equpmf41.res
System init for write_restart ...
Generated 0 of 1 mixed pair_coeff terms from geometric mixing rule
