LAMMPS (23 Jun 2022 - Update 1)
# Read restart
read_restart ./pgnpmf/trial4/2080/equpmf78.res
Reading restart file ...
  restart file = 23 Jun 2022, LAMMPS = 23 Jun 2022
  restoring atom style atomic from restart
  orthogonal box = (1638.9807 1638.9807 1638.9807) to (2361.0193 2361.0193 2361.0193)
  restoring pair style table from restart
  1000 atoms
  read_restart CPU = 0.006 seconds

# Settings

pair_style table spline 9941

pair_coeff 1 1 ./pgnpmf/N20.txt DE_GNP 75.6
pair_coeff 2 2 ./pgnpmf/N100.txt DE_GNP 115.92
pair_coeff 1 2 ./pgnpmf/mixed_potential.txt DE_GNP 95.66

#Neigh_list Calc Frequency

neigh_modify delay 0 every 1 check yes

# Saving Frequency (50 frames)

variable ts_save equal 50000

variable nts equal 50000/0.1
variable medium equal 500000*3
variable long equal 500000*5

# Dump
#dump_modify 1 first no sort id
dump 2 all cfg 50000 ./pgnpmf/trial4/2080/equilibration/trajectory/dumpequ.tens_*.cfg mass type xs ys zs fx fy fz
dump_modify 2 element N20 N100

# thermo_style
thermo_style custom step temp press pe density ke etotal lx ly lz xlo xhi ylo yhi zlo zhi vol dt time cpu tpcpu spcpu cpuremain

# run info
timestep 0.1
thermo 5000

# fix

fix 1 all momentum 1000 linear 1 1 1 angular
variable T equal 300
fix 2 all nvt temp 300 370000 100.0

run 500000
Generated 0 of 1 mixed pair_coeff terms from geometric mixing rule
Unused restart file global fix info:
  fix style: npt, fix ID: 5
  update every 1 steps, delay 0 steps, check yes
Step          Temp          Press          PotEng        Density         KinEng         TotEng           Lx             Ly             Lz            Xlo            Xhi            Ylo            Yhi            Zlo            Zhi           Volume           Dt            Time           CPU           T/CPU          S/CPU         CPULeft
49260000   306.53641      3.2433193     -50381519       1.6851696      912.81308     -50380606       722.03864      722.03864      722.03864      1638.9807      2361.0193      1638.9807      2361.0193      1638.9807      2361.0193      3.7642747e+08  0.1            7110000        0              0              0              0
Averages over the last 51 of 101 rows, steps 49510000 to 49760000:
Temp Press PotEng Density KinEng TotEng Lx Ly Lz Xlo Xhi Ylo Yhi Zlo Zhi Volume Dt
279241 1617.13 -4.95749e+07 1.68517 831531 -4.87433e+07 722.039 722.039 722.039 1638.98 2361.02 1638.98 2361.02 1638.98 2361.02 3.76427e+08 0.1
Loop time of 33.9477 on 4 procs for 500000 steps with 1000 atoms

unfix 2

fix 3 all nvt temp 370000 370000 $(100.0*dt) #iso 1.0 1.0 $(1000.0*dt)
fix 3 all nvt temp 370000 370000 10

run 2500000
Generated 0 of 1 mixed pair_coeff terms from geometric mixing rule
Step          Temp          Press          PotEng        Density         KinEng         TotEng           Lx             Ly             Lz            Xlo            Xhi            Ylo            Yhi            Zlo            Zhi           Volume           Dt            Time           CPU           T/CPU          S/CPU         CPULeft
49760000   389568.65      1906.8077     -49351867       1.6851696      1160068.9     -48191798       722.03864      722.03864      722.03864      1638.9807      2361.0193      1638.9807      2361.0193      1638.9807      2361.0193      3.7642747e+08  0.1            7160000        0              0              0              0
Averages over the last 251 of 501 rows, steps 51010000 to 52260000:
Temp Press PotEng Density KinEng TotEng Lx Ly Lz Xlo Xhi Ylo Yhi Zlo Zhi Volume Dt
369952 1935.45 -4.92432e+07 1.68517 1.10165e+06 -4.81416e+07 722.039 722.039 722.039 1638.98 2361.02 1638.98 2361.02 1638.98 2361.02 3.76427e+08 0.1
Loop time of 171.438 on 4 procs for 2500000 steps with 1000 atoms

unfix 3

fix 4 all nvt temp 370000 300 100.0

run 500000
Generated 0 of 1 mixed pair_coeff terms from geometric mixing rule
Step          Temp          Press          PotEng        Density         KinEng         TotEng           Lx             Ly             Lz            Xlo            Xhi            Ylo            Yhi            Zlo            Zhi           Volume           Dt            Time           CPU           T/CPU          S/CPU         CPULeft
52260000   368159.9       1792.4588     -49339973       1.6851696      1096317.3     -48243655       722.03864      722.03864      722.03864      1638.9807      2361.0193      1638.9807      2361.0193      1638.9807      2361.0193      3.7642747e+08  0.1            7410000        0              0              0              0
Averages over the last 51 of 101 rows, steps 52510000 to 52760000:
Temp Press PotEng Density KinEng TotEng Lx Ly Lz Xlo Xhi Ylo Yhi Zlo Zhi Volume Dt
92989.6 409.855 -4.99728e+07 1.68517 276907 -4.96959e+07 722.039 722.039 722.039 1638.98 2361.02 1638.98 2361.02 1638.98 2361.02 3.76427e+08 0.1
Loop time of 33.9114 on 4 procs for 500000 steps with 1000 atoms

unfix 4

fix 5 all npt temp 300 300 $(100.0*dt) iso 1.0 1.0 $(1000.0*dt)
fix 5 all npt temp 300 300 10 iso 1.0 1.0 $(1000.0*dt)
fix 5 all npt temp 300 300 10 iso 1.0 1.0 100

run 1500000
Generated 0 of 1 mixed pair_coeff terms from geometric mixing rule
Step          Temp          Press          PotEng        Density         KinEng         TotEng           Lx             Ly             Lz            Xlo            Xhi            Ylo            Yhi            Zlo            Zhi           Volume           Dt            Time           CPU           T/CPU          S/CPU         CPULeft
52760000   1372.5142     -62.274528     -50258260       1.6851696      4087.1128     -50254173       722.03864      722.03864      722.03864      1638.9807      2361.0193      1638.9807      2361.0193      1638.9807      2361.0193      3.7642747e+08  0.1            7460000        0              0              0              0
Averages over the last 151 of 301 rows, steps 53510000 to 54260000:
Temp Press PotEng Density KinEng TotEng Lx Ly Lz Xlo Xhi Ylo Yhi Zlo Zhi Volume Dt
299.782 1.00725 -5.03464e+07 1.68834 892.699 -5.03455e+07 721.586 721.586 721.586 1639.21 2360.79 1639.21 2360.79 1639.21 2360.79 3.75721e+08 0.1
Loop time of 117.659 on 4 procs for 1500000 steps with 1000 atoms

# run_style
run_style verlet

# write restart
write_restart ./pgnpmf/trial4/2080/equpmf79.res
System init for write_restart ...
Generated 0 of 1 mixed pair_coeff terms from geometric mixing rule
