LAMMPS (23 Jun 2022 - Update 1)
# Read restart
read_restart ./pgnpmf/28/equpmf63.res
Reading restart file ...
  restart file = 23 Jun 2022, LAMMPS = 23 Jun 2022
  restoring atom style atomic from restart
  orthogonal box = (1540.5421 1540.5421 1540.5421) to (2459.4579 2459.4579 2459.4579)
  restoring pair style table from restart
  1000 atoms
  read_restart CPU = 0.005 seconds

# Settings

pair_style table spline 9941

pair_coeff 1 1 ./pgnpmf/N20.txt DE_GNP 75.6
pair_coeff 2 2 ./pgnpmf/N100.txt DE_GNP 115.92
pair_coeff 1 2 ./pgnpmf/mixed_potential.txt DE_GNP 95.66

#Neigh_list Calc Frequency

neigh_modify delay 0 every 1 check yes

# Saving Frequency (50 frames)

variable ts_save equal 5000

variable nts equal 5000/0.25
variable medium equal 20000*3
variable long equal 20000*5

# Dump
#dump_modify 1 first no sort id
dump 2 all cfg 50000 ./pgnpmf/28/equilibration/trajectory/dumpequ.tens_*.cfg mass type xs ys zs fx fy fz
dump_modify 2 element N20 N100

# thermo_style
thermo_style custom step temp press pe density ke etotal lx ly lz xlo xhi ylo yhi zlo zhi vol dt time cpu tpcpu spcpu cpuremain

# run info
timestep 0.25
thermo 5000

# fix

fix 1 all momentum 1000 linear 1 1 1 angular
variable T equal 300
fix 2 all nvt temp 300 370000 100.0

run 20000
Generated 0 of 1 mixed pair_coeff terms from geometric mixing rule
Unused restart file global fix info:
  fix style: npt, fix ID: 5
  update every 1 steps, delay 0 steps, check yes
Step          Temp          Press          PotEng        Density         KinEng         TotEng           Lx             Ly             Lz            Xlo            Xhi            Ylo            Yhi            Zlo            Zhi           Volume           Dt            Time           CPU           T/CPU          S/CPU         CPULeft
12660000   341.18084      0.41222823    -37493525       0.81751901     1015.9783     -37492509       918.91574      918.91574      918.91574      1540.5421      2459.4579      1540.5421      2459.4579      1540.5421      2459.4579      7.7593808e+08  0.25           3210000        0              0              0              0
Loop time of 1.20388 on 4 procs for 20000 steps with 1000 atoms

unfix 2

fix 3 all nvt temp 370000 370000 $(100.0*dt) #iso 1.0 1.0 $(1000.0*dt)
fix 3 all nvt temp 370000 370000 25

run 100000
Generated 0 of 1 mixed pair_coeff terms from geometric mixing rule
Step          Temp          Press          PotEng        Density         KinEng         TotEng           Lx             Ly             Lz            Xlo            Xhi            Ylo            Yhi            Zlo            Zhi           Volume           Dt            Time           CPU           T/CPU          S/CPU         CPULeft
12680000   365056.12     -77.741349     -37660809       0.81751901     1087074.8     -36573734       918.91574      918.91574      918.91574      1540.5421      2459.4579      1540.5421      2459.4579      1540.5421      2459.4579      7.7593808e+08  0.25           3215000        0              0              0              0
Averages over the last 11 of 21 rows, steps 12730000 to 12780000:
Temp Press PotEng Density KinEng TotEng Lx Ly Lz Xlo Xhi Ylo Yhi Zlo Zhi Volume Dt
367369 45.5542 -3.72953e+07 0.817519 1.09396e+06 -3.62013e+07 918.916 918.916 918.916 1540.54 2459.46 1540.54 2459.46 1540.54 2459.46 7.75938e+08 0.25
Loop time of 6.05248 on 4 procs for 100000 steps with 1000 atoms

unfix 3

fix 4 all nvt temp 370000 300 100.0

run 20000
Generated 0 of 1 mixed pair_coeff terms from geometric mixing rule
Step          Temp          Press          PotEng        Density         KinEng         TotEng           Lx             Ly             Lz            Xlo            Xhi            Ylo            Yhi            Zlo            Zhi           Volume           Dt            Time           CPU           T/CPU          S/CPU         CPULeft
12780000   371346.1      -22.215171     -37126565       0.81751901     1105805.3     -36020759       918.91574      918.91574      918.91574      1540.5421      2459.4579      1540.5421      2459.4579      1540.5421      2459.4579      7.7593808e+08  0.25           3240000        0              0              0              0
Loop time of 1.22377 on 4 procs for 20000 steps with 1000 atoms

unfix 4

fix 5 all npt temp 300 300 $(100.0*dt) iso 1.0 1.0 $(1000.0*dt)
fix 5 all npt temp 300 300 25 iso 1.0 1.0 $(1000.0*dt)
fix 5 all npt temp 300 300 25 iso 1.0 1.0 250

run 60000
Generated 0 of 1 mixed pair_coeff terms from geometric mixing rule
Step          Temp          Press          PotEng        Density         KinEng         TotEng           Lx             Ly             Lz            Xlo            Xhi            Ylo            Yhi            Zlo            Zhi           Volume           Dt            Time           CPU           T/CPU          S/CPU         CPULeft
12800000   9233.7624     -406.15233     -37276275       0.81751901     27496.568     -37248778       918.91574      918.91574      918.91574      1540.5421      2459.4579      1540.5421      2459.4579      1540.5421      2459.4579      7.7593808e+08  0.25           3245000        0              0              0              0
Averages over the last 7 of 13 rows, steps 12830000 to 12860000:
Temp Press PotEng Density KinEng TotEng Lx Ly Lz Xlo Xhi Ylo Yhi Zlo Zhi Volume Dt
344.293 0.869192 -3.77888e+07 0.84795 1025.25 -3.77878e+07 907.79 907.79 907.79 1546.11 2453.89 1546.11 2453.89 1546.11 2453.89 7.48095e+08 0.25
Loop time of 4.41397 on 4 procs for 60000 steps with 1000 atoms

# run_style
run_style verlet

# write restart
write_restart ./pgnpmf/28/equpmf64.res
System init for write_restart ...
Generated 0 of 1 mixed pair_coeff terms from geometric mixing rule
