LAMMPS (23 Jun 2022 - Update 1)
# Read restart
read_restart ./pgnpmf/28/equpmf9.res
Reading restart file ...
  restart file = 23 Jun 2022, LAMMPS = 23 Jun 2022
  restoring atom style atomic from restart
  orthogonal box = (824.77019 824.77019 824.77019) to (3175.2298 3175.2298 3175.2298)
  restoring pair style table from restart
  1000 atoms
  read_restart CPU = 0.004 seconds

# Settings

pair_style table spline 9941

pair_coeff 1 1 ./pgnpmf/N20.txt DE_GNP 75.6
pair_coeff 2 2 ./pgnpmf/N100.txt DE_GNP 115.92
pair_coeff 1 2 ./pgnpmf/mixed_potential.txt DE_GNP 95.66

#Neigh_list Calc Frequency

neigh_modify delay 0 every 1 check yes

# Saving Frequency (50 frames)

variable ts_save equal 5000

variable nts equal 5000/0.25
variable medium equal 20000*3
variable long equal 20000*5

# Dump
#dump_modify 1 first no sort id
dump 2 all cfg 50000 ./pgnpmf/28/equilibration/trajectory/dumpequ.tens_*.cfg mass type xs ys zs fx fy fz
dump_modify 2 element N20 N100

# thermo_style
thermo_style custom step temp press pe density ke etotal lx ly lz xlo xhi ylo yhi zlo zhi vol dt time cpu tpcpu spcpu cpuremain

# run info
timestep 0.25
thermo 5000

# fix

fix 1 all momentum 1000 linear 1 1 1 angular
variable T equal 300
fix 2 all nvt temp 300 370000 100.0

run 20000
Generated 0 of 1 mixed pair_coeff terms from geometric mixing rule
Unused restart file global fix info:
  fix style: npt, fix ID: 5
  update every 1 steps, delay 0 steps, check yes
Step          Temp          Press          PotEng        Density         KinEng         TotEng           Lx             Ly             Lz            Xlo            Xhi            Ylo            Yhi            Zlo            Zhi           Volume           Dt            Time           CPU           T/CPU          S/CPU         CPULeft
1860000   336.06425      1.0367022     -7895169.7      0.048850223    1000.742      -7894169        2350.4596      2350.4596      2350.4596      824.77019      3175.2298      824.77019      3175.2298      824.77019      3175.2298      1.2985491e+10  0.25           510000         0              0              0              0
Loop time of 0.505862 on 4 procs for 20000 steps with 1000 atoms

unfix 2

fix 3 all nvt temp 370000 370000 $(100.0*dt) #iso 1.0 1.0 $(1000.0*dt)
fix 3 all nvt temp 370000 370000 25

run 100000
Generated 0 of 1 mixed pair_coeff terms from geometric mixing rule
Step          Temp          Press          PotEng        Density         KinEng         TotEng           Lx             Ly             Lz            Xlo            Xhi            Ylo            Yhi            Zlo            Zhi           Volume           Dt            Time           CPU           T/CPU          S/CPU         CPULeft
1880000   368280.61      3.9951404     -8006478.8      0.048850223    1096676.8     -6909802        2350.4596      2350.4596      2350.4596      824.77019      3175.2298      824.77019      3175.2298      824.77019      3175.2298      1.2985491e+10  0.25           515000         0              0              0              0
Averages over the last 11 of 21 rows, steps 1930000 to 1980000:
Temp Press PotEng Density KinEng TotEng Lx Ly Lz Xlo Xhi Ylo Yhi Zlo Zhi Volume Dt
374764 3.72573 -7.86644e+06 0.0488502 1.11598e+06 -6.75045e+06 2350.46 2350.46 2350.46 824.77 3175.23 824.77 3175.23 824.77 3175.23 1.29855e+10 0.25
Loop time of 2.5512 on 4 procs for 100000 steps with 1000 atoms

unfix 3

fix 4 all nvt temp 370000 300 100.0

run 20000
Generated 0 of 1 mixed pair_coeff terms from geometric mixing rule
Step          Temp          Press          PotEng        Density         KinEng         TotEng           Lx             Ly             Lz            Xlo            Xhi            Ylo            Yhi            Zlo            Zhi           Volume           Dt            Time           CPU           T/CPU          S/CPU         CPULeft
1980000   363612.7       1.7648414     -7828787.6      0.048850223    1082776.5     -6746011.1      2350.4596      2350.4596      2350.4596      824.77019      3175.2298      824.77019      3175.2298      824.77019      3175.2298      1.2985491e+10  0.25           540000         0              0              0              0
Loop time of 0.509285 on 4 procs for 20000 steps with 1000 atoms

unfix 4

fix 5 all npt temp 300 300 $(100.0*dt) iso 1.0 1.0 $(1000.0*dt)
fix 5 all npt temp 300 300 25 iso 1.0 1.0 $(1000.0*dt)
fix 5 all npt temp 300 300 25 iso 1.0 1.0 250

run 60000
Generated 0 of 1 mixed pair_coeff terms from geometric mixing rule
Step          Temp          Press          PotEng        Density         KinEng         TotEng           Lx             Ly             Lz            Xlo            Xhi            Ylo            Yhi            Zlo            Zhi           Volume           Dt            Time           CPU           T/CPU          S/CPU         CPULeft
2000000   8189.4369     -6.7811545     -7929371.2      0.048850223    24386.745     -7904984.5      2350.4596      2350.4596      2350.4596      824.77019      3175.2298      824.77019      3175.2298      824.77019      3175.2298      1.2985491e+10  0.25           545000         0              0              0              0
Averages over the last 7 of 13 rows, steps 2030000 to 2060000:
Temp Press PotEng Density KinEng TotEng Lx Ly Lz Xlo Xhi Ylo Yhi Zlo Zhi Volume Dt
336.493 0.994942 -8.72569e+06 0.0539302 1002.02 -8.72469e+06 2274.25 2274.25 2274.25 862.874 3137.13 862.874 3137.13 862.874 3137.13 1.17632e+10 0.25
Loop time of 2.2142 on 4 procs for 60000 steps with 1000 atoms

# run_style
run_style verlet

# write restart
write_restart ./pgnpmf/28/equpmf10.res
System init for write_restart ...
Generated 0 of 1 mixed pair_coeff terms from geometric mixing rule
