LAMMPS (23 Jun 2022 - Update 1)
# Read restart
read_restart ./pgnpmf/28/equpmf55.res
Reading restart file ...
  restart file = 23 Jun 2022, LAMMPS = 23 Jun 2022
  restoring atom style atomic from restart
  orthogonal box = (1487.5364 1487.5364 1487.5364) to (2512.4636 2512.4636 2512.4636)
  restoring pair style table from restart
  1000 atoms
  read_restart CPU = 0.006 seconds

# Settings

pair_style table spline 9941

pair_coeff 1 1 ./pgnpmf/N20.txt DE_GNP 75.6
pair_coeff 2 2 ./pgnpmf/N100.txt DE_GNP 115.92
pair_coeff 1 2 ./pgnpmf/mixed_potential.txt DE_GNP 95.66

#Neigh_list Calc Frequency

neigh_modify delay 0 every 1 check yes

# Saving Frequency (50 frames)

variable ts_save equal 5000

variable nts equal 5000/0.25
variable medium equal 20000*3
variable long equal 20000*5

# Dump
#dump_modify 1 first no sort id
dump 2 all cfg 50000 ./pgnpmf/28/equilibration/trajectory/dumpequ.tens_*.cfg mass type xs ys zs fx fy fz
dump_modify 2 element N20 N100

# thermo_style
thermo_style custom step temp press pe density ke etotal lx ly lz xlo xhi ylo yhi zlo zhi vol dt time cpu tpcpu spcpu cpuremain

# run info
timestep 0.25
thermo 5000

# fix

fix 1 all momentum 1000 linear 1 1 1 angular
variable T equal 300
fix 2 all nvt temp 300 370000 100.0

run 20000
Generated 0 of 1 mixed pair_coeff terms from geometric mixing rule
Unused restart file global fix info:
  fix style: npt, fix ID: 5
  update every 1 steps, delay 0 steps, check yes
Step          Temp          Press          PotEng        Density         KinEng         TotEng           Lx             Ly             Lz            Xlo            Xhi            Ylo            Yhi            Zlo            Zhi           Volume           Dt            Time           CPU           T/CPU          S/CPU         CPULeft
11060000   342.46042      1.2220368     -35133347       0.58917697     1019.7887     -35132327       1024.9273      1024.9273      1024.9273      1487.5364      2512.4636      1487.5364      2512.4636      1487.5364      2512.4636      1.0766615e+09  0.25           2810000        0              0              0              0
Loop time of 1.05926 on 4 procs for 20000 steps with 1000 atoms

unfix 2

fix 3 all nvt temp 370000 370000 $(100.0*dt) #iso 1.0 1.0 $(1000.0*dt)
fix 3 all nvt temp 370000 370000 25

run 100000
Generated 0 of 1 mixed pair_coeff terms from geometric mixing rule
Step          Temp          Press          PotEng        Density         KinEng         TotEng           Lx             Ly             Lz            Xlo            Xhi            Ylo            Yhi            Zlo            Zhi           Volume           Dt            Time           CPU           T/CPU          S/CPU         CPULeft
11080000   365235.64     -56.028506     -35285011       0.58917697     1087609.4     -34197401       1024.9273      1024.9273      1024.9273      1487.5364      2512.4636      1487.5364      2512.4636      1487.5364      2512.4636      1.0766615e+09  0.25           2815000        0              0              0              0
Averages over the last 11 of 21 rows, steps 11130000 to 11180000:
Temp Press PotEng Density KinEng TotEng Lx Ly Lz Xlo Xhi Ylo Yhi Zlo Zhi Volume Dt
375666 -14.8105 -3.50544e+07 0.589177 1.11867e+06 -3.39357e+07 1024.93 1024.93 1024.93 1487.54 2512.46 1487.54 2512.46 1487.54 2512.46 1.07666e+09 0.25
Loop time of 5.40428 on 4 procs for 100000 steps with 1000 atoms

unfix 3

fix 4 all nvt temp 370000 300 100.0

run 20000
Generated 0 of 1 mixed pair_coeff terms from geometric mixing rule
Step          Temp          Press          PotEng        Density         KinEng         TotEng           Lx             Ly             Lz            Xlo            Xhi            Ylo            Yhi            Zlo            Zhi           Volume           Dt            Time           CPU           T/CPU          S/CPU         CPULeft
11180000   363952.58     -38.364996     -34631708       0.58917697     1083788.6     -33547920       1024.9273      1024.9273      1024.9273      1487.5364      2512.4636      1487.5364      2512.4636      1487.5364      2512.4636      1.0766615e+09  0.25           2840000        0              0              0              0
Loop time of 1.07524 on 4 procs for 20000 steps with 1000 atoms

unfix 4

fix 5 all npt temp 300 300 $(100.0*dt) iso 1.0 1.0 $(1000.0*dt)
fix 5 all npt temp 300 300 25 iso 1.0 1.0 $(1000.0*dt)
fix 5 all npt temp 300 300 25 iso 1.0 1.0 250

run 60000
Generated 0 of 1 mixed pair_coeff terms from geometric mixing rule
Step          Temp          Press          PotEng        Density         KinEng         TotEng           Lx             Ly             Lz            Xlo            Xhi            Ylo            Yhi            Zlo            Zhi           Volume           Dt            Time           CPU           T/CPU          S/CPU         CPULeft
11200000   9210.4357     -267.73519     -34775321       0.58917697     27427.105     -34747894       1024.9273      1024.9273      1024.9273      1487.5364      2512.4636      1487.5364      2512.4636      1487.5364      2512.4636      1.0766615e+09  0.25           2845000        0              0              0              0
Averages over the last 7 of 13 rows, steps 11230000 to 11260000:
Temp Press PotEng Density KinEng TotEng Lx Ly Lz Xlo Xhi Ylo Yhi Zlo Zhi Volume Dt
345.547 0.738795 -3.52807e+07 0.611325 1028.98 -3.52796e+07 1012.4 1012.4 1012.4 1493.8 2506.2 1493.8 2506.2 1493.8 2506.2 1.03766e+09 0.25
Loop time of 3.93923 on 4 procs for 60000 steps with 1000 atoms

# run_style
run_style verlet

# write restart
write_restart ./pgnpmf/28/equpmf56.res
System init for write_restart ...
Generated 0 of 1 mixed pair_coeff terms from geometric mixing rule
