LAMMPS (23 Jun 2022 - Update 1)
# Read restart
read_restart ./pgnpmf/28/equpmf8.res
Reading restart file ...
  restart file = 23 Jun 2022, LAMMPS = 23 Jun 2022
  restoring atom style atomic from restart
  orthogonal box = (773.75205 773.75205 773.75205) to (3226.2479 3226.2479 3226.2479)
  restoring pair style table from restart
  1000 atoms
  read_restart CPU = 0.004 seconds

# Settings

pair_style table spline 9941

pair_coeff 1 1 ./pgnpmf/N20.txt DE_GNP 75.6
pair_coeff 2 2 ./pgnpmf/N100.txt DE_GNP 115.92
pair_coeff 1 2 ./pgnpmf/mixed_potential.txt DE_GNP 95.66

#Neigh_list Calc Frequency

neigh_modify delay 0 every 1 check yes

# Saving Frequency (50 frames)

variable ts_save equal 5000

variable nts equal 5000/0.25
variable medium equal 20000*3
variable long equal 20000*5

# Dump
#dump_modify 1 first no sort id
dump 2 all cfg 50000 ./pgnpmf/28/equilibration/trajectory/dumpequ.tens_*.cfg mass type xs ys zs fx fy fz
dump_modify 2 element N20 N100

# thermo_style
thermo_style custom step temp press pe density ke etotal lx ly lz xlo xhi ylo yhi zlo zhi vol dt time cpu tpcpu spcpu cpuremain

# run info
timestep 0.25
thermo 5000

# fix

fix 1 all momentum 1000 linear 1 1 1 angular
variable T equal 300
fix 2 all nvt temp 300 370000 100.0

run 20000
Generated 0 of 1 mixed pair_coeff terms from geometric mixing rule
Unused restart file global fix info:
  fix style: npt, fix ID: 5
  update every 1 steps, delay 0 steps, check yes
Step          Temp          Press          PotEng        Density         KinEng         TotEng           Lx             Ly             Lz            Xlo            Xhi            Ylo            Yhi            Zlo            Zhi           Volume           Dt            Time           CPU           T/CPU          S/CPU         CPULeft
1660000   332.32553      0.99901322    -7232381.9      0.043003129    989.60869     -7231392.3      2452.4959      2452.4959      2452.4959      773.75205      3226.2479      773.75205      3226.2479      773.75205      3226.2479      1.4751116e+10  0.25           460000         0              0              0              0
Loop time of 0.494398 on 4 procs for 20000 steps with 1000 atoms

unfix 2

fix 3 all nvt temp 370000 370000 $(100.0*dt) #iso 1.0 1.0 $(1000.0*dt)
fix 3 all nvt temp 370000 370000 25

run 100000
Generated 0 of 1 mixed pair_coeff terms from geometric mixing rule
Step          Temp          Press          PotEng        Density         KinEng         TotEng           Lx             Ly             Lz            Xlo            Xhi            Ylo            Yhi            Zlo            Zhi           Volume           Dt            Time           CPU           T/CPU          S/CPU         CPULeft
1680000   370291.74      3.5016426     -7396718.3      0.043003129    1102665.6     -6294052.7      2452.4959      2452.4959      2452.4959      773.75205      3226.2479      773.75205      3226.2479      773.75205      3226.2479      1.4751116e+10  0.25           465000         0              0              0              0
Averages over the last 11 of 21 rows, steps 1730000 to 1780000:
Temp Press PotEng Density KinEng TotEng Lx Ly Lz Xlo Xhi Ylo Yhi Zlo Zhi Volume Dt
367174 3.27811 -7.12205e+06 0.0430031 1.09338e+06 -6.02867e+06 2452.5 2452.5 2452.5 773.752 3226.25 773.752 3226.25 773.752 3226.25 1.47511e+10 0.25
Loop time of 2.48692 on 4 procs for 100000 steps with 1000 atoms

unfix 3

fix 4 all nvt temp 370000 300 100.0

run 20000
Generated 0 of 1 mixed pair_coeff terms from geometric mixing rule
Step          Temp          Press          PotEng        Density         KinEng         TotEng           Lx             Ly             Lz            Xlo            Xhi            Ylo            Yhi            Zlo            Zhi           Volume           Dt            Time           CPU           T/CPU          S/CPU         CPULeft
1780000   368658.46      0.517043      -6961828.2      0.043003129    1097801.9     -5864026.2      2452.4959      2452.4959      2452.4959      773.75205      3226.2479      773.75205      3226.2479      773.75205      3226.2479      1.4751116e+10  0.25           490000         0              0              0              0
Loop time of 0.501371 on 4 procs for 20000 steps with 1000 atoms

unfix 4

fix 5 all npt temp 300 300 $(100.0*dt) iso 1.0 1.0 $(1000.0*dt)
fix 5 all npt temp 300 300 25 iso 1.0 1.0 $(1000.0*dt)
fix 5 all npt temp 300 300 25 iso 1.0 1.0 250

run 60000
Generated 0 of 1 mixed pair_coeff terms from geometric mixing rule
Step          Temp          Press          PotEng        Density         KinEng         TotEng           Lx             Ly             Lz            Xlo            Xhi            Ylo            Yhi            Zlo            Zhi           Volume           Dt            Time           CPU           T/CPU          S/CPU         CPULeft
1800000   8169.5424     -5.4216399     -6948605.1      0.043003129    24327.502     -6924277.6      2452.4959      2452.4959      2452.4959      773.75205      3226.2479      773.75205      3226.2479      773.75205      3226.2479      1.4751116e+10  0.25           495000         0              0              0              0
Averages over the last 7 of 13 rows, steps 1830000 to 1860000:
Temp Press PotEng Density KinEng TotEng Lx Ly Lz Xlo Xhi Ylo Yhi Zlo Zhi Volume Dt
337.714 1.01741 -7.79191e+06 0.0481594 1005.65 -7.7909e+06 2361.69 2361.69 2361.69 819.153 3180.85 819.153 3180.85 819.153 3180.85 1.3173e+10 0.25
Loop time of 2.21665 on 4 procs for 60000 steps with 1000 atoms

# run_style
run_style verlet

# write restart
write_restart ./pgnpmf/28/equpmf9.res
System init for write_restart ...
Generated 0 of 1 mixed pair_coeff terms from geometric mixing rule
