LAMMPS (23 Jun 2022 - Update 1)
# Read restart
read_restart ./pgnpmf/trial4/2080/equpmf86.res
Reading restart file ...
  restart file = 23 Jun 2022, LAMMPS = 23 Jun 2022
  restoring atom style atomic from restart
  orthogonal box = (1639.9945 1639.9945 1639.9945) to (2360.0055 2360.0055 2360.0055)
  restoring pair style table from restart
  1000 atoms
  read_restart CPU = 0.003 seconds

# Settings

pair_style table spline 9941

pair_coeff 1 1 ./pgnpmf/N20.txt DE_GNP 75.6
pair_coeff 2 2 ./pgnpmf/N100.txt DE_GNP 115.92
pair_coeff 1 2 ./pgnpmf/mixed_potential.txt DE_GNP 95.66

#Neigh_list Calc Frequency

neigh_modify delay 0 every 1 check yes

# Saving Frequency (50 frames)

variable ts_save equal 50000

variable nts equal 50000/0.1
variable medium equal 500000*3
variable long equal 500000*5

# Dump
#dump_modify 1 first no sort id
dump 2 all cfg 50000 ./pgnpmf/trial4/2080/equilibration/trajectory/dumpequ.tens_*.cfg mass type xs ys zs fx fy fz
dump_modify 2 element N20 N100

# thermo_style
thermo_style custom step temp press pe density ke etotal lx ly lz xlo xhi ylo yhi zlo zhi vol dt time cpu tpcpu spcpu cpuremain

# run info
timestep 0.1
thermo 5000

# fix

fix 1 all momentum 1000 linear 1 1 1 angular
variable T equal 300
fix 2 all nvt temp 300 370000 100.0

run 500000
Generated 0 of 1 mixed pair_coeff terms from geometric mixing rule
Unused restart file global fix info:
  fix style: npt, fix ID: 5
  update every 1 steps, delay 0 steps, check yes
Step          Temp          Press          PotEng        Density         KinEng         TotEng           Lx             Ly             Lz            Xlo            Xhi            Ylo            Yhi            Zlo            Zhi           Volume           Dt            Time           CPU           T/CPU          S/CPU         CPULeft
89260000   298.05766     -5.0969404     -50911315       1.699446       887.56482     -50910427       720.01109      720.01109      720.01109      1639.9945      2360.0055      1639.9945      2360.0055      1639.9945      2360.0055      3.7326524e+08  0.1            11110000       0              0              0              0
Averages over the last 51 of 101 rows, steps 89510000 to 89760000:
Temp Press PotEng Density KinEng TotEng Lx Ly Lz Xlo Xhi Ylo Yhi Zlo Zhi Volume Dt
278147 1713.03 -5.00248e+07 1.69945 828274 -4.91966e+07 720.011 720.011 720.011 1639.99 2360.01 1639.99 2360.01 1639.99 2360.01 3.73265e+08 0.1
Loop time of 31.3775 on 4 procs for 500000 steps with 1000 atoms

unfix 2

fix 3 all nvt temp 370000 370000 $(100.0*dt) #iso 1.0 1.0 $(1000.0*dt)
fix 3 all nvt temp 370000 370000 10

run 2500000
Generated 0 of 1 mixed pair_coeff terms from geometric mixing rule
Step          Temp          Press          PotEng        Density         KinEng         TotEng           Lx             Ly             Lz            Xlo            Xhi            Ylo            Yhi            Zlo            Zhi           Volume           Dt            Time           CPU           T/CPU          S/CPU         CPULeft
89760000   374831.46      2184.1561     -49845485       1.699446       1116184.1     -48729301       720.01109      720.01109      720.01109      1639.9945      2360.0055      1639.9945      2360.0055      1639.9945      2360.0055      3.7326524e+08  0.1            11160000       0              0              0              0
Averages over the last 251 of 501 rows, steps 91010000 to 92260000:
Temp Press PotEng Density KinEng TotEng Lx Ly Lz Xlo Xhi Ylo Yhi Zlo Zhi Volume Dt
369576 2007.19 -4.9635e+07 1.69945 1.10053e+06 -4.85345e+07 720.011 720.011 720.011 1639.99 2360.01 1639.99 2360.01 1639.99 2360.01 3.73265e+08 0.1
Loop time of 158.309 on 4 procs for 2500000 steps with 1000 atoms

unfix 3

fix 4 all nvt temp 370000 300 100.0

run 500000
Generated 0 of 1 mixed pair_coeff terms from geometric mixing rule
Step          Temp          Press          PotEng        Density         KinEng         TotEng           Lx             Ly             Lz            Xlo            Xhi            Ylo            Yhi            Zlo            Zhi           Volume           Dt            Time           CPU           T/CPU          S/CPU         CPULeft
92260000   373126.71      2004.3889     -49479475       1.699446       1111107.6     -48368368       720.01109      720.01109      720.01109      1639.9945      2360.0055      1639.9945      2360.0055      1639.9945      2360.0055      3.7326524e+08  0.1            11410000       0              0              0              0
Averages over the last 51 of 101 rows, steps 92510000 to 92760000:
Temp Press PotEng Density KinEng TotEng Lx Ly Lz Xlo Xhi Ylo Yhi Zlo Zhi Volume Dt
93086.5 511.895 -5.03469e+07 1.69945 277196 -5.00697e+07 720.011 720.011 720.011 1639.99 2360.01 1639.99 2360.01 1639.99 2360.01 3.73265e+08 0.1
Loop time of 31.44 on 4 procs for 500000 steps with 1000 atoms

unfix 4

fix 5 all npt temp 300 300 $(100.0*dt) iso 1.0 1.0 $(1000.0*dt)
fix 5 all npt temp 300 300 10 iso 1.0 1.0 $(1000.0*dt)
fix 5 all npt temp 300 300 10 iso 1.0 1.0 100

run 1500000
Generated 0 of 1 mixed pair_coeff terms from geometric mixing rule
Step          Temp          Press          PotEng        Density         KinEng         TotEng           Lx             Ly             Lz            Xlo            Xhi            Ylo            Yhi            Zlo            Zhi           Volume           Dt            Time           CPU           T/CPU          S/CPU         CPULeft
92760000   1372.9606      26.061716     -50595935       1.699446       4088.4421     -50591846       720.01109      720.01109      720.01109      1639.9945      2360.0055      1639.9945      2360.0055      1639.9945      2360.0055      3.7326524e+08  0.1            11460000       0              0              0              0
Averages over the last 151 of 301 rows, steps 93510000 to 94260000:
Temp Press PotEng Density KinEng TotEng Lx Ly Lz Xlo Xhi Ylo Yhi Zlo Zhi Volume Dt
299.837 1.18379 -5.07302e+07 1.69965 892.865 -5.07293e+07 719.982 719.982 719.982 1640.01 2359.99 1640.01 2359.99 1640.01 2359.99 3.7322e+08 0.1
Loop time of 110.977 on 4 procs for 1500000 steps with 1000 atoms

# run_style
run_style verlet

# write restart
write_restart ./pgnpmf/trial4/2080/equpmf87.res
System init for write_restart ...
Generated 0 of 1 mixed pair_coeff terms from geometric mixing rule
