LAMMPS (23 Jun 2022 - Update 1)
# Read restart
read_restart ./pgnpmf/600400/equpmf41.res
Reading restart file ...
  restart file = 23 Jun 2022, LAMMPS = 23 Jun 2022
  restoring atom style atomic from restart
  orthogonal box = (2186.9028 2186.9028 2186.9028) to (2813.0972 2813.0972 2813.0972)
  restoring pair style table from restart
  1000 atoms
  read_restart CPU = 0.014 seconds

# Settings

pair_style table spline 9941

pair_coeff 1 1 ./pgnpmf/N20.txt DE_GNP 75.6
pair_coeff 2 2 ./pgnpmf/N100.txt DE_GNP 115.92
pair_coeff 1 2 ./pgnpmf/mixed_potential.txt DE_GNP 95.66

#Neigh_list Calc Frequency

neigh_modify delay 0 every 1 check yes

# Saving Frequency (50 frames)

variable ts_save equal 5000

# Dump
#dump_modify 1 first no sort id
#dump 2 all cfg 50000 ./equilibration/trajectory/ovito/dumpgen.tens_*.cfg mass type xs ys zs fx fy fz

# thermo_style
thermo_style custom step temp press pe density ke etotal lx ly lz xlo xhi ylo yhi zlo zhi vol dt time cpu tpcpu spcpu cpuremain

# run info
timestep 0.5
thermo 200

# fix

fix 1 all momentum 1000 linear 1 1 1 angular
variable T equal 300
fix 2 all nvt temp 300 370000 100.0

run 100000
Generated 0 of 1 mixed pair_coeff terms from geometric mixing rule
Unused restart file global fix info:
  fix style: npt, fix ID: 5
  update every 1 steps, delay 0 steps, check yes
Step          Temp          Press          PotEng        Density         KinEng         TotEng           Lx             Ly             Lz            Xlo            Xhi            Ylo            Yhi            Zlo            Zhi           Volume           Dt            Time           CPU           T/CPU          S/CPU         CPULeft
28705000   314.44859      1.9951279     -27490244       2.0418756      936.3742      -27489307       626.19438      626.19438      626.19438      2186.9028      2813.0972      2186.9028      2813.0972      2186.9028      2813.0972      2.4554296e+08  0.5            14355000       0              0              0              0
Averages over the last 251 of 501 rows, steps 28755000 to 28805000:
Temp Press PotEng Density KinEng TotEng Lx Ly Lz Xlo Xhi Ylo Yhi Zlo Zhi Volume Dt
277053 2593.87 -2.6714e+07 2.04188 825018 -2.5889e+07 626.194 626.194 626.194 2186.9 2813.1 2186.9 2813.1 2186.9 2813.1 2.45543e+08 0.5
Loop time of 7.58434 on 4 procs for 100000 steps with 1000 atoms

unfix 2

fix 3 all nvt temp 370000 370000 $(100.0*dt) #iso 1.0 1.0 $(1000.0*dt)
fix 3 all nvt temp 370000 370000 50

run 200000
Generated 0 of 1 mixed pair_coeff terms from geometric mixing rule
Step          Temp          Press          PotEng        Density         KinEng         TotEng           Lx             Ly             Lz            Xlo            Xhi            Ylo            Yhi            Zlo            Zhi           Volume           Dt            Time           CPU           T/CPU          S/CPU         CPULeft
28805000   366458.5       3285.2018     -26468230       2.0418756      1091250.8     -25376980       626.19438      626.19438      626.19438      2186.9028      2813.0972      2186.9028      2813.0972      2186.9028      2813.0972      2.4554296e+08  0.5            14405000       0              0              0              0
Averages over the last 501 of 1001 rows, steps 28905000 to 29005000:
Temp Press PotEng Density KinEng TotEng Lx Ly Lz Xlo Xhi Ylo Yhi Zlo Zhi Volume Dt
369705 3194.07 -2.64336e+07 2.04188 1.10092e+06 -2.53327e+07 626.194 626.194 626.194 2186.9 2813.1 2186.9 2813.1 2186.9 2813.1 2.45543e+08 0.5
Loop time of 15.3656 on 4 procs for 200000 steps with 1000 atoms

unfix 3

fix 4 all nvt temp 370000 300 100.0

run 100000
Generated 0 of 1 mixed pair_coeff terms from geometric mixing rule
Step          Temp          Press          PotEng        Density         KinEng         TotEng           Lx             Ly             Lz            Xlo            Xhi            Ylo            Yhi            Zlo            Zhi           Volume           Dt            Time           CPU           T/CPU          S/CPU         CPULeft
29005000   367827.58      3068.7622     -26532191       2.0418756      1095327.7     -25436863       626.19438      626.19438      626.19438      2186.9028      2813.0972      2186.9028      2813.0972      2186.9028      2813.0972      2.4554296e+08  0.5            14505000       0              0              0              0
Averages over the last 251 of 501 rows, steps 29055000 to 29105000:
Temp Press PotEng Density KinEng TotEng Lx Ly Lz Xlo Xhi Ylo Yhi Zlo Zhi Volume Dt
93024.5 908.597 -2.71675e+07 2.04188 277011 -2.68905e+07 626.194 626.194 626.194 2186.9 2813.1 2186.9 2813.1 2186.9 2813.1 2.45543e+08 0.5
Loop time of 7.60984 on 4 procs for 100000 steps with 1000 atoms

unfix 4

fix 5 all npt temp 300 300 $(100.0*dt) iso 1.0 1.0 $(1000.0*dt)
fix 5 all npt temp 300 300 50 iso 1.0 1.0 $(1000.0*dt)
fix 5 all npt temp 300 300 50 iso 1.0 1.0 500

run 300000
Generated 0 of 1 mixed pair_coeff terms from geometric mixing rule
Step          Temp          Press          PotEng        Density         KinEng         TotEng           Lx             Ly             Lz            Xlo            Xhi            Ylo            Yhi            Zlo            Zhi           Volume           Dt            Time           CPU           T/CPU          S/CPU         CPULeft
29105000   1382.1712      117.85633     -27485585       2.0418756      4115.8698     -27481469       626.19438      626.19438      626.19438      2186.9028      2813.0972      2186.9028      2813.0972      2186.9028      2813.0972      2.4554296e+08  0.5            14555000       0              0              0              0
Averages over the last 751 of 1501 rows, steps 29255000 to 29405000:
Temp Press PotEng Density KinEng TotEng Lx Ly Lz Xlo Xhi Ylo Yhi Zlo Zhi Volume Dt
300.492 0.724805 -2.75477e+07 2.04084 894.813 -2.75468e+07 626.301 626.301 626.301 2186.85 2813.15 2186.85 2813.15 2186.85 2813.15 2.45668e+08 0.5
Loop time of 26.705 on 4 procs for 300000 steps with 1000 atoms

# run_style
run_style verlet

# write restart
write_restart ./pgnpmf/600400/equpmf42.res
System init for write_restart ...
Generated 0 of 1 mixed pair_coeff terms from geometric mixing rule
