LAMMPS (23 Jun 2022 - Update 1)
# Read restart
read_restart ./pgnpmf/600400/equpmf20.res
Reading restart file ...
  restart file = 23 Jun 2022, LAMMPS = 23 Jun 2022
  restoring atom style atomic from restart
  orthogonal box = (2061.3548 2061.3548 2061.3548) to (2938.6452 2938.6452 2938.6452)
  restoring pair style table from restart
  1000 atoms
  read_restart CPU = 0.014 seconds

# Settings

pair_style table spline 9941

pair_coeff 1 1 ./pgnpmf/N20.txt DE_GNP 75.6
pair_coeff 2 2 ./pgnpmf/N100.txt DE_GNP 115.92
pair_coeff 1 2 ./pgnpmf/mixed_potential.txt DE_GNP 95.66

#Neigh_list Calc Frequency

neigh_modify delay 0 every 1 check yes

# Saving Frequency (50 frames)

variable ts_save equal 5000

# Dump
#dump_modify 1 first no sort id
#dump 2 all cfg 50000 ./equilibration/trajectory/ovito/dumpgen.tens_*.cfg mass type xs ys zs fx fy fz

# thermo_style
thermo_style custom step temp press pe density ke etotal lx ly lz xlo xhi ylo yhi zlo zhi vol dt time cpu tpcpu spcpu cpuremain

# run info
timestep 0.5
thermo 200

# fix

fix 1 all momentum 1000 linear 1 1 1 angular
variable T equal 300
fix 2 all nvt temp 300 370000 100.0

run 100000
Generated 0 of 1 mixed pair_coeff terms from geometric mixing rule
Unused restart file global fix info:
  fix style: npt, fix ID: 5
  update every 1 steps, delay 0 steps, check yes
Step          Temp          Press          PotEng        Density         KinEng         TotEng           Lx             Ly             Lz            Xlo            Xhi            Ylo            Yhi            Zlo            Zhi           Volume           Dt            Time           CPU           T/CPU          S/CPU         CPULeft
14005000   310.68803      1.4418654     -20624325       0.74255174     925.17589     -20623400       877.29034      877.29034      877.29034      2061.3548      2938.6452      2061.3548      2938.6452      2061.3548      2938.6452      6.7519629e+08  0.5            7005000        0              0              0              0
Averages over the last 251 of 501 rows, steps 14055000 to 14105000:
Temp Press PotEng Density KinEng TotEng Lx Ly Lz Xlo Xhi Ylo Yhi Zlo Zhi Volume Dt
277585 109.486 -2.05311e+07 0.742552 826600 -1.97045e+07 877.29 877.29 877.29 2061.35 2938.65 2061.35 2938.65 2061.35 2938.65 6.75196e+08 0.5
Loop time of 7.3557 on 4 procs for 100000 steps with 1000 atoms

unfix 2

fix 3 all nvt temp 370000 370000 $(100.0*dt) #iso 1.0 1.0 $(1000.0*dt)
fix 3 all nvt temp 370000 370000 50

run 200000
Generated 0 of 1 mixed pair_coeff terms from geometric mixing rule
Step          Temp          Press          PotEng        Density         KinEng         TotEng           Lx             Ly             Lz            Xlo            Xhi            Ylo            Yhi            Zlo            Zhi           Volume           Dt            Time           CPU           T/CPU          S/CPU         CPULeft
14105000   391595.1       72.448413     -20204759       0.74255174     1166103.3     -19038655       877.29034      877.29034      877.29034      2061.3548      2938.6452      2061.3548      2938.6452      2061.3548      2938.6452      6.7519629e+08  0.5            7055000        0              0              0              0
Averages over the last 501 of 1001 rows, steps 14205000 to 14305000:
Temp Press PotEng Density KinEng TotEng Lx Ly Lz Xlo Xhi Ylo Yhi Zlo Zhi Volume Dt
370036 26.3079 -1.91836e+07 0.742552 1.1019e+06 -1.80817e+07 877.29 877.29 877.29 2061.35 2938.65 2061.35 2938.65 2061.35 2938.65 6.75196e+08 0.5
Loop time of 14.3285 on 4 procs for 200000 steps with 1000 atoms

unfix 3

fix 4 all nvt temp 370000 300 100.0

run 100000
Generated 0 of 1 mixed pair_coeff terms from geometric mixing rule
Step          Temp          Press          PotEng        Density         KinEng         TotEng           Lx             Ly             Lz            Xlo            Xhi            Ylo            Yhi            Zlo            Zhi           Volume           Dt            Time           CPU           T/CPU          S/CPU         CPULeft
14305000   366610.31      14.290437     -19052254       0.74255174     1091702.9     -17960551       877.29034      877.29034      877.29034      2061.3548      2938.6452      2061.3548      2938.6452      2061.3548      2938.6452      6.7519629e+08  0.5            7155000        0              0              0              0
Averages over the last 251 of 501 rows, steps 14355000 to 14405000:
Temp Press PotEng Density KinEng TotEng Lx Ly Lz Xlo Xhi Ylo Yhi Zlo Zhi Volume Dt
93129.3 -168.48 -2.01229e+07 0.742552 277323 -1.98456e+07 877.29 877.29 877.29 2061.35 2938.65 2061.35 2938.65 2061.35 2938.65 6.75196e+08 0.5
Loop time of 7.11421 on 4 procs for 100000 steps with 1000 atoms

unfix 4

fix 5 all npt temp 300 300 $(100.0*dt) iso 1.0 1.0 $(1000.0*dt)
fix 5 all npt temp 300 300 50 iso 1.0 1.0 $(1000.0*dt)
fix 5 all npt temp 300 300 50 iso 1.0 1.0 500

run 300000
Generated 0 of 1 mixed pair_coeff terms from geometric mixing rule
Step          Temp          Press          PotEng        Density         KinEng         TotEng           Lx             Ly             Lz            Xlo            Xhi            Ylo            Yhi            Zlo            Zhi           Volume           Dt            Time           CPU           T/CPU          S/CPU         CPULeft
14405000   1377.8986     -236.91035     -20592491       0.74255174     4103.1468     -20588388       877.29034      877.29034      877.29034      2061.3548      2938.6452      2061.3548      2938.6452      2061.3548      2938.6452      6.7519629e+08  0.5            7205000        0              0              0              0
Averages over the last 751 of 1501 rows, steps 14555000 to 14705000:
Temp Press PotEng Density KinEng TotEng Lx Ly Lz Xlo Xhi Ylo Yhi Zlo Zhi Volume Dt
312.364 0.957937 -2.11637e+07 0.789027 930.168 -2.11628e+07 859.723 859.723 859.723 2070.14 2929.86 2070.14 2929.86 2070.14 2929.86 6.3545e+08 0.5
Loop time of 26.3589 on 4 procs for 300000 steps with 1000 atoms

# run_style
run_style verlet

# write restart
write_restart ./pgnpmf/600400/equpmf21.res
System init for write_restart ...
Generated 0 of 1 mixed pair_coeff terms from geometric mixing rule
