LAMMPS (23 Jun 2022 - Update 1)
# Read restart
read_restart ./pgnpmf/600400/equpmf26.res
Reading restart file ...
  restart file = 23 Jun 2022, LAMMPS = 23 Jun 2022
  restoring atom style atomic from restart
  orthogonal box = (2114.7635 2114.7635 2114.7635) to (2885.2365 2885.2365 2885.2365)
  restoring pair style table from restart
  1000 atoms
  read_restart CPU = 0.014 seconds

# Settings

pair_style table spline 9941

pair_coeff 1 1 ./pgnpmf/N20.txt DE_GNP 75.6
pair_coeff 2 2 ./pgnpmf/N100.txt DE_GNP 115.92
pair_coeff 1 2 ./pgnpmf/mixed_potential.txt DE_GNP 95.66

#Neigh_list Calc Frequency

neigh_modify delay 0 every 1 check yes

# Saving Frequency (50 frames)

variable ts_save equal 5000

# Dump
#dump_modify 1 first no sort id
#dump 2 all cfg 50000 ./equilibration/trajectory/ovito/dumpgen.tens_*.cfg mass type xs ys zs fx fy fz

# thermo_style
thermo_style custom step temp press pe density ke etotal lx ly lz xlo xhi ylo yhi zlo zhi vol dt time cpu tpcpu spcpu cpuremain

# run info
timestep 0.5
thermo 200

# fix

fix 1 all momentum 1000 linear 1 1 1 angular
variable T equal 300
fix 2 all nvt temp 300 370000 100.0

run 100000
Generated 0 of 1 mixed pair_coeff terms from geometric mixing rule
Unused restart file global fix info:
  fix style: npt, fix ID: 5
  update every 1 steps, delay 0 steps, check yes
Step          Temp          Press          PotEng        Density         KinEng         TotEng           Lx             Ly             Lz            Xlo            Xhi            Ylo            Yhi            Zlo            Zhi           Volume           Dt            Time           CPU           T/CPU          S/CPU         CPULeft
18205000   309.84341     -0.28613535    -23472003       1.0961862      922.66077     -23471080       770.47309      770.47309      770.47309      2114.7635      2885.2365      2114.7635      2885.2365      2114.7635      2885.2365      4.57375e+08    0.5            9105000        0              0              0              0
Averages over the last 251 of 501 rows, steps 18255000 to 18305000:
Temp Press PotEng Density KinEng TotEng Lx Ly Lz Xlo Xhi Ylo Yhi Zlo Zhi Volume Dt
277150 167.256 -2.3164e+07 1.09619 825306 -2.23387e+07 770.473 770.473 770.473 2114.76 2885.24 2114.76 2885.24 2114.76 2885.24 4.57375e+08 0.5
Loop time of 7.32308 on 4 procs for 100000 steps with 1000 atoms

unfix 2

fix 3 all nvt temp 370000 370000 $(100.0*dt) #iso 1.0 1.0 $(1000.0*dt)
fix 3 all nvt temp 370000 370000 50

run 200000
Generated 0 of 1 mixed pair_coeff terms from geometric mixing rule
Step          Temp          Press          PotEng        Density         KinEng         TotEng           Lx             Ly             Lz            Xlo            Xhi            Ylo            Yhi            Zlo            Zhi           Volume           Dt            Time           CPU           T/CPU          S/CPU         CPULeft
18305000   364015.15      136.89296     -22862097       1.0961862      1083975       -21778122       770.47309      770.47309      770.47309      2114.7635      2885.2365      2114.7635      2885.2365      2114.7635      2885.2365      4.57375e+08    0.5            9155000        0              0              0              0
Averages over the last 501 of 1001 rows, steps 18405000 to 18505000:
Temp Press PotEng Density KinEng TotEng Lx Ly Lz Xlo Xhi Ylo Yhi Zlo Zhi Volume Dt
370024 108.402 -2.19658e+07 1.09619 1.10187e+06 -2.08639e+07 770.473 770.473 770.473 2114.76 2885.24 2114.76 2885.24 2114.76 2885.24 4.57375e+08 0.5
Loop time of 14.4809 on 4 procs for 200000 steps with 1000 atoms

unfix 3

fix 4 all nvt temp 370000 300 100.0

run 100000
Generated 0 of 1 mixed pair_coeff terms from geometric mixing rule
Step          Temp          Press          PotEng        Density         KinEng         TotEng           Lx             Ly             Lz            Xlo            Xhi            Ylo            Yhi            Zlo            Zhi           Volume           Dt            Time           CPU           T/CPU          S/CPU         CPULeft
18505000   364417.67      104.41909     -21869886       1.0961862      1085173.6     -20784713       770.47309      770.47309      770.47309      2114.7635      2885.2365      2114.7635      2885.2365      2114.7635      2885.2365      4.57375e+08    0.5            9255000        0              0              0              0
Averages over the last 251 of 501 rows, steps 18555000 to 18605000:
Temp Press PotEng Density KinEng TotEng Lx Ly Lz Xlo Xhi Ylo Yhi Zlo Zhi Volume Dt
92982.8 -342.83 -2.26187e+07 1.09619 276887 -2.23418e+07 770.473 770.473 770.473 2114.76 2885.24 2114.76 2885.24 2114.76 2885.24 4.57375e+08 0.5
Loop time of 7.26557 on 4 procs for 100000 steps with 1000 atoms

unfix 4

fix 5 all npt temp 300 300 $(100.0*dt) iso 1.0 1.0 $(1000.0*dt)
fix 5 all npt temp 300 300 50 iso 1.0 1.0 $(1000.0*dt)
fix 5 all npt temp 300 300 50 iso 1.0 1.0 500

run 300000
Generated 0 of 1 mixed pair_coeff terms from geometric mixing rule
Step          Temp          Press          PotEng        Density         KinEng         TotEng           Lx             Ly             Lz            Xlo            Xhi            Ylo            Yhi            Zlo            Zhi           Volume           Dt            Time           CPU           T/CPU          S/CPU         CPULeft
18605000   1360.7372     -464.43258     -23035744       1.0961862      4052.0431     -23031692       770.47309      770.47309      770.47309      2114.7635      2885.2365      2114.7635      2885.2365      2114.7635      2885.2365      4.57375e+08    0.5            9305000        0              0              0              0
Averages over the last 751 of 1501 rows, steps 18755000 to 18905000:
Temp Press PotEng Density KinEng TotEng Lx Ly Lz Xlo Xhi Ylo Yhi Zlo Zhi Volume Dt
312.01 0.977083 -2.36314e+07 1.15994 929.113 -2.36305e+07 756.095 756.095 756.095 2121.95 2878.05 2121.95 2878.05 2121.95 2878.05 4.32247e+08 0.5
Loop time of 26.4818 on 4 procs for 300000 steps with 1000 atoms

# run_style
run_style verlet

# write restart
write_restart ./pgnpmf/600400/equpmf27.res
System init for write_restart ...
Generated 0 of 1 mixed pair_coeff terms from geometric mixing rule
