LAMMPS (23 Jun 2022 - Update 1)
# Read restart
read_restart ./pgnpmf/600400/equpmf27.res
Reading restart file ...
  restart file = 23 Jun 2022, LAMMPS = 23 Jun 2022
  restoring atom style atomic from restart
  orthogonal box = (2122.8831 2122.8831 2122.8831) to (2877.1169 2877.1169 2877.1169)
  restoring pair style table from restart
  1000 atoms
  read_restart CPU = 0.015 seconds

# Settings

pair_style table spline 9941

pair_coeff 1 1 ./pgnpmf/N20.txt DE_GNP 75.6
pair_coeff 2 2 ./pgnpmf/N100.txt DE_GNP 115.92
pair_coeff 1 2 ./pgnpmf/mixed_potential.txt DE_GNP 95.66

#Neigh_list Calc Frequency

neigh_modify delay 0 every 1 check yes

# Saving Frequency (50 frames)

variable ts_save equal 5000

# Dump
#dump_modify 1 first no sort id
#dump 2 all cfg 50000 ./equilibration/trajectory/ovito/dumpgen.tens_*.cfg mass type xs ys zs fx fy fz

# thermo_style
thermo_style custom step temp press pe density ke etotal lx ly lz xlo xhi ylo yhi zlo zhi vol dt time cpu tpcpu spcpu cpuremain

# run info
timestep 0.5
thermo 200

# fix

fix 1 all momentum 1000 linear 1 1 1 angular
variable T equal 300
fix 2 all nvt temp 300 370000 100.0

run 100000
Generated 0 of 1 mixed pair_coeff terms from geometric mixing rule
Unused restart file global fix info:
  fix style: npt, fix ID: 5
  update every 1 steps, delay 0 steps, check yes
Step          Temp          Press          PotEng        Density         KinEng         TotEng           Lx             Ly             Lz            Xlo            Xhi            Ylo            Yhi            Zlo            Zhi           Volume           Dt            Time           CPU           T/CPU          S/CPU         CPULeft
18905000   310.50246     -1.5607317     -23760771       1.1685267      924.6233      -23759846       754.23389      754.23389      754.23389      2122.8831      2877.1169      2122.8831      2877.1169      2122.8831      2877.1169      4.290601e+08   0.5            9455000        0              0              0              0
Averages over the last 251 of 501 rows, steps 18955000 to 19005000:
Temp Press PotEng Density KinEng TotEng Lx Ly Lz Xlo Xhi Ylo Yhi Zlo Zhi Volume Dt
277360 165.577 -2.33689e+07 1.16853 825930 -2.2543e+07 754.234 754.234 754.234 2122.88 2877.12 2122.88 2877.12 2122.88 2877.12 4.2906e+08 0.5
Loop time of 7.37567 on 4 procs for 100000 steps with 1000 atoms

unfix 2

fix 3 all nvt temp 370000 370000 $(100.0*dt) #iso 1.0 1.0 $(1000.0*dt)
fix 3 all nvt temp 370000 370000 50

run 200000
Generated 0 of 1 mixed pair_coeff terms from geometric mixing rule
Step          Temp          Press          PotEng        Density         KinEng         TotEng           Lx             Ly             Lz            Xlo            Xhi            Ylo            Yhi            Zlo            Zhi           Volume           Dt            Time           CPU           T/CPU          S/CPU         CPULeft
19005000   382221.35      125.4098      -22999918       1.1685267      1138189.9     -21861728       754.23389      754.23389      754.23389      2122.8831      2877.1169      2122.8831      2877.1169      2122.8831      2877.1169      4.290601e+08   0.5            9505000        0              0              0              0
Averages over the last 501 of 1001 rows, steps 19105000 to 19205000:
Temp Press PotEng Density KinEng TotEng Lx Ly Lz Xlo Xhi Ylo Yhi Zlo Zhi Volume Dt
370120 57.1026 -2.18159e+07 1.16853 1.10215e+06 -2.07137e+07 754.234 754.234 754.234 2122.88 2877.12 2122.88 2877.12 2122.88 2877.12 4.2906e+08 0.5
Loop time of 14.0306 on 4 procs for 200000 steps with 1000 atoms

unfix 3

fix 4 all nvt temp 370000 300 100.0

run 100000
Generated 0 of 1 mixed pair_coeff terms from geometric mixing rule
Step          Temp          Press          PotEng        Density         KinEng         TotEng           Lx             Ly             Lz            Xlo            Xhi            Ylo            Yhi            Zlo            Zhi           Volume           Dt            Time           CPU           T/CPU          S/CPU         CPULeft
19205000   373891.04      84.827366     -21579405       1.1685267      1113383.7     -20466021       754.23389      754.23389      754.23389      2122.8831      2877.1169      2122.8831      2877.1169      2122.8831      2877.1169      4.290601e+08   0.5            9605000        0              0              0              0
Averages over the last 251 of 501 rows, steps 19255000 to 19305000:
Temp Press PotEng Density KinEng TotEng Lx Ly Lz Xlo Xhi Ylo Yhi Zlo Zhi Volume Dt
93148.6 -449.774 -2.24135e+07 1.16853 277381 -2.21361e+07 754.234 754.234 754.234 2122.88 2877.12 2122.88 2877.12 2122.88 2877.12 4.2906e+08 0.5
Loop time of 6.86924 on 4 procs for 100000 steps with 1000 atoms

unfix 4

fix 5 all npt temp 300 300 $(100.0*dt) iso 1.0 1.0 $(1000.0*dt)
fix 5 all npt temp 300 300 50 iso 1.0 1.0 $(1000.0*dt)
fix 5 all npt temp 300 300 50 iso 1.0 1.0 500

run 300000
Generated 0 of 1 mixed pair_coeff terms from geometric mixing rule
Step          Temp          Press          PotEng        Density         KinEng         TotEng           Lx             Ly             Lz            Xlo            Xhi            Ylo            Yhi            Zlo            Zhi           Volume           Dt            Time           CPU           T/CPU          S/CPU         CPULeft
19305000   1372.1681     -613.63554     -22825009       1.1685267      4086.0822     -22820923       754.23389      754.23389      754.23389      2122.8831      2877.1169      2122.8831      2877.1169      2122.8831      2877.1169      4.290601e+08   0.5            9655000        0              0              0              0
Averages over the last 751 of 1501 rows, steps 19455000 to 19605000:
Temp Press PotEng Density KinEng TotEng Lx Ly Lz Xlo Xhi Ylo Yhi Zlo Zhi Volume Dt
313.116 1.001 -2.36101e+07 1.25108 932.405 -2.36091e+07 737.269 737.269 737.269 2131.37 2868.63 2131.37 2868.63 2131.37 2868.63 4.00758e+08 0.5
Loop time of 24.8249 on 4 procs for 300000 steps with 1000 atoms

# run_style
run_style verlet

# write restart
write_restart ./pgnpmf/600400/equpmf28.res
System init for write_restart ...
Generated 0 of 1 mixed pair_coeff terms from geometric mixing rule
