LAMMPS (23 Jun 2022 - Update 1)
# Read restart
read_restart ./pgnpmf/600400/equpmf8.res
Reading restart file ...
  restart file = 23 Jun 2022, LAMMPS = 23 Jun 2022
  restoring atom style atomic from restart
  orthogonal box = (1842.6632 1842.6632 1842.6632) to (3157.3368 3157.3368 3157.3368)
  restoring pair style table from restart
  1000 atoms
  read_restart CPU = 0.014 seconds

# Settings

pair_style table spline 9941

pair_coeff 1 1 ./pgnpmf/N20.txt DE_GNP 75.6
pair_coeff 2 2 ./pgnpmf/N100.txt DE_GNP 115.92
pair_coeff 1 2 ./pgnpmf/mixed_potential.txt DE_GNP 95.66

#Neigh_list Calc Frequency

neigh_modify delay 0 every 1 check yes

# Saving Frequency (50 frames)

variable ts_save equal 5000

# Dump
#dump_modify 1 first no sort id
#dump 2 all cfg 50000 ./equilibration/trajectory/ovito/dumpgen.tens_*.cfg mass type xs ys zs fx fy fz

# thermo_style
thermo_style custom step temp press pe density ke etotal lx ly lz xlo xhi ylo yhi zlo zhi vol dt time cpu tpcpu spcpu cpuremain

# run info
timestep 0.5
thermo 200

# fix

fix 1 all momentum 1000 linear 1 1 1 angular
variable T equal 300
fix 2 all nvt temp 300 370000 100.0

run 100000
Generated 0 of 1 mixed pair_coeff terms from geometric mixing rule
Unused restart file global fix info:
  fix style: npt, fix ID: 5
  update every 1 steps, delay 0 steps, check yes
Step          Temp          Press          PotEng        Density         KinEng         TotEng           Lx             Ly             Lz            Xlo            Xhi            Ylo            Yhi            Zlo            Zhi           Volume           Dt            Time           CPU           T/CPU          S/CPU         CPULeft
5605000   311.23832      1.4719148     -7000583        0.22064945     926.81458     -6999656.2      1314.6737      1314.6737      1314.6737      1842.6632      3157.3368      1842.6632      3157.3368      1842.6632      3157.3368      2.2722385e+09  0.5            2805000        0              0              0              0
Averages over the last 251 of 501 rows, steps 5655000 to 5705000:
Temp Press PotEng Density KinEng TotEng Lx Ly Lz Xlo Xhi Ylo Yhi Zlo Zhi Volume Dt
277647 12.4018 -7.00949e+06 0.220649 826784 -6.1827e+06 1314.67 1314.67 1314.67 1842.66 3157.34 1842.66 3157.34 1842.66 3157.34 2.27224e+09 0.5
Loop time of 5.89521 on 4 procs for 100000 steps with 1000 atoms

unfix 2

fix 3 all nvt temp 370000 370000 $(100.0*dt) #iso 1.0 1.0 $(1000.0*dt)
fix 3 all nvt temp 370000 370000 50

run 200000
Generated 0 of 1 mixed pair_coeff terms from geometric mixing rule
Step          Temp          Press          PotEng        Density         KinEng         TotEng           Lx             Ly             Lz            Xlo            Xhi            Ylo            Yhi            Zlo            Zhi           Volume           Dt            Time           CPU           T/CPU          S/CPU         CPULeft
5705000   368890.64      18.033518     -6871851.5      0.22064945     1098493.3     -5773358.1      1314.6737      1314.6737      1314.6737      1842.6632      3157.3368      1842.6632      3157.3368      1842.6632      3157.3368      2.2722385e+09  0.5            2855000        0              0              0              0
Averages over the last 501 of 1001 rows, steps 5805000 to 5905000:
Temp Press PotEng Density KinEng TotEng Lx Ly Lz Xlo Xhi Ylo Yhi Zlo Zhi Volume Dt
370182 13.4746 -6.46191e+06 0.220649 1.10234e+06 -5.35957e+06 1314.67 1314.67 1314.67 1842.66 3157.34 1842.66 3157.34 1842.66 3157.34 2.27224e+09 0.5
Loop time of 11.2083 on 4 procs for 200000 steps with 1000 atoms

unfix 3

fix 4 all nvt temp 370000 300 100.0

run 100000
Generated 0 of 1 mixed pair_coeff terms from geometric mixing rule
Step          Temp          Press          PotEng        Density         KinEng         TotEng           Lx             Ly             Lz            Xlo            Xhi            Ylo            Yhi            Zlo            Zhi           Volume           Dt            Time           CPU           T/CPU          S/CPU         CPULeft
5905000   368910.21      17.791553     -6602676        0.22064945     1098551.6     -5504124.4      1314.6737      1314.6737      1314.6737      1842.6632      3157.3368      1842.6632      3157.3368      1842.6632      3157.3368      2.2722385e+09  0.5            2955000        0              0              0              0
Averages over the last 251 of 501 rows, steps 5955000 to 6005000:
Temp Press PotEng Density KinEng TotEng Lx Ly Lz Xlo Xhi Ylo Yhi Zlo Zhi Volume Dt
93127.3 -12.7677 -7.36481e+06 0.220649 277317 -7.08749e+06 1314.67 1314.67 1314.67 1842.66 3157.34 1842.66 3157.34 1842.66 3157.34 2.27224e+09 0.5
Loop time of 5.02666 on 4 procs for 100000 steps with 1000 atoms

unfix 4

fix 5 all npt temp 300 300 $(100.0*dt) iso 1.0 1.0 $(1000.0*dt)
fix 5 all npt temp 300 300 50 iso 1.0 1.0 $(1000.0*dt)
fix 5 all npt temp 300 300 50 iso 1.0 1.0 500

run 300000
Generated 0 of 1 mixed pair_coeff terms from geometric mixing rule
Step          Temp          Press          PotEng        Density         KinEng         TotEng           Lx             Ly             Lz            Xlo            Xhi            Ylo            Yhi            Zlo            Zhi           Volume           Dt            Time           CPU           T/CPU          S/CPU         CPULeft
6005000   1358.0686     -25.469291     -7701635.7      0.22064945     4044.0963     -7697591.6      1314.6737      1314.6737      1314.6737      1842.6632      3157.3368      1842.6632      3157.3368      1842.6632      3157.3368      2.2722385e+09  0.5            3005000        0              0              0              0
Averages over the last 751 of 1501 rows, steps 6155000 to 6305000:
Temp Press PotEng Density KinEng TotEng Lx Ly Lz Xlo Xhi Ylo Yhi Zlo Zhi Volume Dt
312.176 0.998345 -8.20788e+06 0.252256 929.606 -8.20695e+06 1257.37 1257.37 1257.37 1871.31 3128.69 1871.31 3128.69 1871.31 3128.69 1.98806e+09 0.5
Loop time of 19.4313 on 4 procs for 300000 steps with 1000 atoms

# run_style
run_style verlet

# write restart
write_restart ./pgnpmf/600400/equpmf9.res
System init for write_restart ...
Generated 0 of 1 mixed pair_coeff terms from geometric mixing rule
