LAMMPS (23 Jun 2022 - Update 1)
# Read restart
read_restart ./pgnpmf/600400/equpmf10.res
Reading restart file ...
  restart file = 23 Jun 2022, LAMMPS = 23 Jun 2022
  restoring atom style atomic from restart
  orthogonal box = (1909.8648 1909.8648 1909.8648) to (3090.1352 3090.1352 3090.1352)
  restoring pair style table from restart
  1000 atoms
  read_restart CPU = 0.017 seconds

# Settings

pair_style table spline 9941

pair_coeff 1 1 ./pgnpmf/N20.txt DE_GNP 75.6
pair_coeff 2 2 ./pgnpmf/N100.txt DE_GNP 115.92
pair_coeff 1 2 ./pgnpmf/mixed_potential.txt DE_GNP 95.66

#Neigh_list Calc Frequency

neigh_modify delay 0 every 1 check yes

# Saving Frequency (50 frames)

variable ts_save equal 5000

# Dump
#dump_modify 1 first no sort id
#dump 2 all cfg 50000 ./equilibration/trajectory/ovito/dumpgen.tens_*.cfg mass type xs ys zs fx fy fz

# thermo_style
thermo_style custom step temp press pe density ke etotal lx ly lz xlo xhi ylo yhi zlo zhi vol dt time cpu tpcpu spcpu cpuremain

# run info
timestep 0.5
thermo 200

# fix

fix 1 all momentum 1000 linear 1 1 1 angular
variable T equal 300
fix 2 all nvt temp 300 370000 100.0

run 100000
Generated 0 of 1 mixed pair_coeff terms from geometric mixing rule
Unused restart file global fix info:
  fix style: npt, fix ID: 5
  update every 1 steps, delay 0 steps, check yes
Step          Temp          Press          PotEng        Density         KinEng         TotEng           Lx             Ly             Lz            Xlo            Xhi            Ylo            Yhi            Zlo            Zhi           Volume           Dt            Time           CPU           T/CPU          S/CPU         CPULeft
7005000   311.41931      0.89487885    -9582953.7      0.30493849     927.35352     -9582026.4      1180.2704      1180.2704      1180.2704      1909.8648      3090.1352      1909.8648      3090.1352      1909.8648      3090.1352      1.6441616e+09  0.5            3505000        0              0              0              0
Averages over the last 251 of 501 rows, steps 7055000 to 7105000:
Temp Press PotEng Density KinEng TotEng Lx Ly Lz Xlo Xhi Ylo Yhi Zlo Zhi Volume Dt
277641 13.1416 -9.60261e+06 0.304938 826766 -8.77584e+06 1180.27 1180.27 1180.27 1909.86 3090.14 1909.86 3090.14 1909.86 3090.14 1.64416e+09 0.5
Loop time of 5.13757 on 4 procs for 100000 steps with 1000 atoms

unfix 2

fix 3 all nvt temp 370000 370000 $(100.0*dt) #iso 1.0 1.0 $(1000.0*dt)
fix 3 all nvt temp 370000 370000 50

run 200000
Generated 0 of 1 mixed pair_coeff terms from geometric mixing rule
Step          Temp          Press          PotEng        Density         KinEng         TotEng           Lx             Ly             Lz            Xlo            Xhi            Ylo            Yhi            Zlo            Zhi           Volume           Dt            Time           CPU           T/CPU          S/CPU         CPULeft
7105000   368347.29      4.0879863     -9345932.5      0.30493849     1096875.3     -8249057.1      1180.2704      1180.2704      1180.2704      1909.8648      3090.1352      1909.8648      3090.1352      1909.8648      3090.1352      1.6441616e+09  0.5            3555000        0              0              0              0
Averages over the last 501 of 1001 rows, steps 7205000 to 7305000:
Temp Press PotEng Density KinEng TotEng Lx Ly Lz Xlo Xhi Ylo Yhi Zlo Zhi Volume Dt
370150 16.2765 -9.19603e+06 0.304938 1.10224e+06 -8.09378e+06 1180.27 1180.27 1180.27 1909.86 3090.14 1909.86 3090.14 1909.86 3090.14 1.64416e+09 0.5
Loop time of 10.3879 on 4 procs for 200000 steps with 1000 atoms

unfix 3

fix 4 all nvt temp 370000 300 100.0

run 100000
Generated 0 of 1 mixed pair_coeff terms from geometric mixing rule
Step          Temp          Press          PotEng        Density         KinEng         TotEng           Lx             Ly             Lz            Xlo            Xhi            Ylo            Yhi            Zlo            Zhi           Volume           Dt            Time           CPU           T/CPU          S/CPU         CPULeft
7305000   364518.13      19.433444     -9383589.1      0.30493849     1085472.7     -8298116.3      1180.2704      1180.2704      1180.2704      1909.8648      3090.1352      1909.8648      3090.1352      1909.8648      3090.1352      1.6441616e+09  0.5            3655000        0              0              0              0
Averages over the last 251 of 501 rows, steps 7355000 to 7405000:
Temp Press PotEng Density KinEng TotEng Lx Ly Lz Xlo Xhi Ylo Yhi Zlo Zhi Volume Dt
93067.9 -27.6765 -1.03186e+07 0.304938 277140 -1.00415e+07 1180.27 1180.27 1180.27 1909.86 3090.14 1909.86 3090.14 1909.86 3090.14 1.64416e+09 0.5
Loop time of 5.18263 on 4 procs for 100000 steps with 1000 atoms

unfix 4

fix 5 all npt temp 300 300 $(100.0*dt) iso 1.0 1.0 $(1000.0*dt)
fix 5 all npt temp 300 300 50 iso 1.0 1.0 $(1000.0*dt)
fix 5 all npt temp 300 300 50 iso 1.0 1.0 500

run 300000
Generated 0 of 1 mixed pair_coeff terms from geometric mixing rule
Step          Temp          Press          PotEng        Density         KinEng         TotEng           Lx             Ly             Lz            Xlo            Xhi            Ylo            Yhi            Zlo            Zhi           Volume           Dt            Time           CPU           T/CPU          S/CPU         CPULeft
7405000   1376.3292     -47.236451     -10803661       0.30493849     4098.4734     -10799563       1180.2704      1180.2704      1180.2704      1909.8648      3090.1352      1909.8648      3090.1352      1909.8648      3090.1352      1.6441616e+09  0.5            3705000        0              0              0              0
Averages over the last 751 of 1501 rows, steps 7555000 to 7705000:
Temp Press PotEng Density KinEng TotEng Lx Ly Lz Xlo Xhi Ylo Yhi Zlo Zhi Volume Dt
313.336 1.01811 -1.13566e+07 0.337955 933.06 -1.13557e+07 1140.55 1140.55 1140.55 1929.72 3070.28 1929.72 3070.28 1929.72 3070.28 1.48378e+09 0.5
Loop time of 20.1507 on 4 procs for 300000 steps with 1000 atoms

# run_style
run_style verlet

# write restart
write_restart ./pgnpmf/600400/equpmf11.res
System init for write_restart ...
Generated 0 of 1 mixed pair_coeff terms from geometric mixing rule
