LAMMPS (23 Jun 2022 - Update 1)
# Read restart
read_restart ./pgnpmf/600400/equpmf70.res
Reading restart file ...
  restart file = 23 Jun 2022, LAMMPS = 23 Jun 2022
  restoring atom style atomic from restart
  orthogonal box = (2187.6237 2187.6237 2187.6237) to (2812.3763 2812.3763 2812.3763)
  restoring pair style table from restart
  1000 atoms
  read_restart CPU = 0.014 seconds

# Settings

pair_style table spline 9941

pair_coeff 1 1 ./pgnpmf/N20.txt DE_GNP 75.6
pair_coeff 2 2 ./pgnpmf/N100.txt DE_GNP 115.92
pair_coeff 1 2 ./pgnpmf/mixed_potential.txt DE_GNP 95.66

#Neigh_list Calc Frequency

neigh_modify delay 0 every 1 check yes

# Saving Frequency (50 frames)

variable ts_save equal 5000

# Dump
#dump_modify 1 first no sort id
#dump 2 all cfg 50000 ./equilibration/trajectory/ovito/dumpgen.tens_*.cfg mass type xs ys zs fx fy fz

# thermo_style
thermo_style custom step temp press pe density ke etotal lx ly lz xlo xhi ylo yhi zlo zhi vol dt time cpu tpcpu spcpu cpuremain

# run info
timestep 0.5
thermo 200

# fix

fix 1 all momentum 1000 linear 1 1 1 angular
variable T equal 300
fix 2 all nvt temp 300 370000 100.0

run 100000
Generated 0 of 1 mixed pair_coeff terms from geometric mixing rule
Unused restart file global fix info:
  fix style: npt, fix ID: 5
  update every 1 steps, delay 0 steps, check yes
Step          Temp          Press          PotEng        Density         KinEng         TotEng           Lx             Ly             Lz            Xlo            Xhi            Ylo            Yhi            Zlo            Zhi           Volume           Dt            Time           CPU           T/CPU          S/CPU         CPULeft
49005000   290.94282      4.2461942     -27743760       2.0560448      866.37804     -27742894       624.75259      624.75259      624.75259      2187.6237      2812.3763      2187.6237      2812.3763      2187.6237      2812.3763      2.4385081e+08  0.5            24505000       0              0              0              0
Averages over the last 251 of 501 rows, steps 49055000 to 49105000:
Temp Press PotEng Density KinEng TotEng Lx Ly Lz Xlo Xhi Ylo Yhi Zlo Zhi Volume Dt
277111 2626.5 -2.69003e+07 2.05604 825188 -2.60751e+07 624.753 624.753 624.753 2187.62 2812.38 2187.62 2812.38 2187.62 2812.38 2.43851e+08 0.5
Loop time of 7.88838 on 4 procs for 100000 steps with 1000 atoms

unfix 2

fix 3 all nvt temp 370000 370000 $(100.0*dt) #iso 1.0 1.0 $(1000.0*dt)
fix 3 all nvt temp 370000 370000 50

run 200000
Generated 0 of 1 mixed pair_coeff terms from geometric mixing rule
Step          Temp          Press          PotEng        Density         KinEng         TotEng           Lx             Ly             Lz            Xlo            Xhi            Ylo            Yhi            Zlo            Zhi           Volume           Dt            Time           CPU           T/CPU          S/CPU         CPULeft
49105000   379095.21      3156.0498     -26752109       2.0560448      1128880.8     -25623228       624.75259      624.75259      624.75259      2187.6237      2812.3763      2187.6237      2812.3763      2187.6237      2812.3763      2.4385081e+08  0.5            24555000       0              0              0              0
Averages over the last 501 of 1001 rows, steps 49205000 to 49305000:
Temp Press PotEng Density KinEng TotEng Lx Ly Lz Xlo Xhi Ylo Yhi Zlo Zhi Volume Dt
369955 3178.66 -2.66921e+07 2.05604 1.10166e+06 -2.55904e+07 624.753 624.753 624.753 2187.62 2812.38 2187.62 2812.38 2187.62 2812.38 2.43851e+08 0.5
Loop time of 15.8385 on 4 procs for 200000 steps with 1000 atoms

unfix 3

fix 4 all nvt temp 370000 300 100.0

run 100000
Generated 0 of 1 mixed pair_coeff terms from geometric mixing rule
Step          Temp          Press          PotEng        Density         KinEng         TotEng           Lx             Ly             Lz            Xlo            Xhi            Ylo            Yhi            Zlo            Zhi           Volume           Dt            Time           CPU           T/CPU          S/CPU         CPULeft
49305000   384165.42      3098.4145     -26652887       2.0560448      1143979       -25508908       624.75259      624.75259      624.75259      2187.6237      2812.3763      2187.6237      2812.3763      2187.6237      2812.3763      2.4385081e+08  0.5            24655000       0              0              0              0
Averages over the last 251 of 501 rows, steps 49355000 to 49405000:
Temp Press PotEng Density KinEng TotEng Lx Ly Lz Xlo Xhi Ylo Yhi Zlo Zhi Volume Dt
93031 841.008 -2.74238e+07 2.05604 277031 -2.71468e+07 624.753 624.753 624.753 2187.62 2812.38 2187.62 2812.38 2187.62 2812.38 2.43851e+08 0.5
Loop time of 7.85289 on 4 procs for 100000 steps with 1000 atoms

unfix 4

fix 5 all npt temp 300 300 $(100.0*dt) iso 1.0 1.0 $(1000.0*dt)
fix 5 all npt temp 300 300 50 iso 1.0 1.0 $(1000.0*dt)
fix 5 all npt temp 300 300 50 iso 1.0 1.0 500

run 300000
Generated 0 of 1 mixed pair_coeff terms from geometric mixing rule
Step          Temp          Press          PotEng        Density         KinEng         TotEng           Lx             Ly             Lz            Xlo            Xhi            Ylo            Yhi            Zlo            Zhi           Volume           Dt            Time           CPU           T/CPU          S/CPU         CPULeft
49405000   1394.9879      56.394814     -27718589       2.0560448      4154.0359     -27714435       624.75259      624.75259      624.75259      2187.6237      2812.3763      2187.6237      2812.3763      2187.6237      2812.3763      2.4385081e+08  0.5            24705000       0              0              0              0
Averages over the last 751 of 1501 rows, steps 49555000 to 49705000:
Temp Press PotEng Density KinEng TotEng Lx Ly Lz Xlo Xhi Ylo Yhi Zlo Zhi Volume Dt
300.214 0.477506 -2.77761e+07 2.05801 893.986 -2.77752e+07 624.553 624.553 624.553 2187.72 2812.28 2187.72 2812.28 2187.72 2812.28 2.43618e+08 0.5
Loop time of 27.4481 on 4 procs for 300000 steps with 1000 atoms

# run_style
run_style verlet

# write restart
write_restart ./pgnpmf/600400/equpmf71.res
System init for write_restart ...
Generated 0 of 1 mixed pair_coeff terms from geometric mixing rule
