LAMMPS (23 Jun 2022 - Update 1)
# Read restart
read_restart ./pgnpmf/600400/equpmf51.res
Reading restart file ...
  restart file = 23 Jun 2022, LAMMPS = 23 Jun 2022
  restoring atom style atomic from restart
  orthogonal box = (2187.191 2187.191 2187.191) to (2812.809 2812.809 2812.809)
  restoring pair style table from restart
  1000 atoms
  read_restart CPU = 0.014 seconds

# Settings

pair_style table spline 9941

pair_coeff 1 1 ./pgnpmf/N20.txt DE_GNP 75.6
pair_coeff 2 2 ./pgnpmf/N100.txt DE_GNP 115.92
pair_coeff 1 2 ./pgnpmf/mixed_potential.txt DE_GNP 95.66

#Neigh_list Calc Frequency

neigh_modify delay 0 every 1 check yes

# Saving Frequency (50 frames)

variable ts_save equal 5000

# Dump
#dump_modify 1 first no sort id
#dump 2 all cfg 50000 ./equilibration/trajectory/ovito/dumpgen.tens_*.cfg mass type xs ys zs fx fy fz

# thermo_style
thermo_style custom step temp press pe density ke etotal lx ly lz xlo xhi ylo yhi zlo zhi vol dt time cpu tpcpu spcpu cpuremain

# run info
timestep 0.5
thermo 200

# fix

fix 1 all momentum 1000 linear 1 1 1 angular
variable T equal 300
fix 2 all nvt temp 300 370000 100.0

run 100000
Generated 0 of 1 mixed pair_coeff terms from geometric mixing rule
Unused restart file global fix info:
  fix style: npt, fix ID: 5
  update every 1 steps, delay 0 steps, check yes
Step          Temp          Press          PotEng        Density         KinEng         TotEng           Lx             Ly             Lz            Xlo            Xhi            Ylo            Yhi            Zlo            Zhi           Volume           Dt            Time           CPU           T/CPU          S/CPU         CPULeft
35705000   308.69403     -9.0630409     -27624369       2.0475252      919.23812     -27623450       625.6179       625.6179       625.6179       2187.191       2812.809       2187.191       2812.809       2187.191       2812.809       2.4486544e+08  0.5            17855000       0              0              0              0
Averages over the last 251 of 501 rows, steps 35755000 to 35805000:
Temp Press PotEng Density KinEng TotEng Lx Ly Lz Xlo Xhi Ylo Yhi Zlo Zhi Volume Dt
277602 2624.56 -2.68558e+07 2.04753 826653 -2.60291e+07 625.618 625.618 625.618 2187.19 2812.81 2187.19 2812.81 2187.19 2812.81 2.44865e+08 0.5
Loop time of 7.91814 on 4 procs for 100000 steps with 1000 atoms

unfix 2

fix 3 all nvt temp 370000 370000 $(100.0*dt) #iso 1.0 1.0 $(1000.0*dt)
fix 3 all nvt temp 370000 370000 50

run 200000
Generated 0 of 1 mixed pair_coeff terms from geometric mixing rule
Step          Temp          Press          PotEng        Density         KinEng         TotEng           Lx             Ly             Lz            Xlo            Xhi            Ylo            Yhi            Zlo            Zhi           Volume           Dt            Time           CPU           T/CPU          S/CPU         CPULeft
35805000   357675.73      3223.0928     -26598996       2.0475252      1065097.2     -25533898       625.6179       625.6179       625.6179       2187.191       2812.809       2187.191       2812.809       2187.191       2812.809       2.4486544e+08  0.5            17905000       0              0              0              0
Averages over the last 501 of 1001 rows, steps 35905000 to 36005000:
Temp Press PotEng Density KinEng TotEng Lx Ly Lz Xlo Xhi Ylo Yhi Zlo Zhi Volume Dt
369970 3237.61 -2.65834e+07 2.04753 1.10171e+06 -2.54817e+07 625.618 625.618 625.618 2187.19 2812.81 2187.19 2812.81 2187.19 2812.81 2.44865e+08 0.5
Loop time of 15.9639 on 4 procs for 200000 steps with 1000 atoms

unfix 3

fix 4 all nvt temp 370000 300 100.0

run 100000
Generated 0 of 1 mixed pair_coeff terms from geometric mixing rule
Step          Temp          Press          PotEng        Density         KinEng         TotEng           Lx             Ly             Lz            Xlo            Xhi            Ylo            Yhi            Zlo            Zhi           Volume           Dt            Time           CPU           T/CPU          S/CPU         CPULeft
36005000   383024.83      3194.5009     -26577987       2.0475252      1140582.5     -25437404       625.6179       625.6179       625.6179       2187.191       2812.809       2187.191       2812.809       2187.191       2812.809       2.4486544e+08  0.5            18005000       0              0              0              0
Averages over the last 251 of 501 rows, steps 36055000 to 36105000:
Temp Press PotEng Density KinEng TotEng Lx Ly Lz Xlo Xhi Ylo Yhi Zlo Zhi Volume Dt
93066.5 878.315 -2.72989e+07 2.04753 277136 -2.70218e+07 625.618 625.618 625.618 2187.19 2812.81 2187.19 2812.81 2187.19 2812.81 2.44865e+08 0.5
Loop time of 7.91933 on 4 procs for 100000 steps with 1000 atoms

unfix 4

fix 5 all npt temp 300 300 $(100.0*dt) iso 1.0 1.0 $(1000.0*dt)
fix 5 all npt temp 300 300 50 iso 1.0 1.0 $(1000.0*dt)
fix 5 all npt temp 300 300 50 iso 1.0 1.0 500

run 300000
Generated 0 of 1 mixed pair_coeff terms from geometric mixing rule
Step          Temp          Press          PotEng        Density         KinEng         TotEng           Lx             Ly             Lz            Xlo            Xhi            Ylo            Yhi            Zlo            Zhi           Volume           Dt            Time           CPU           T/CPU          S/CPU         CPULeft
36105000   1397.6308      66.739951     -27599878       2.0475252      4161.9058     -27595716       625.6179       625.6179       625.6179       2187.191       2812.809       2187.191       2812.809       2187.191       2812.809       2.4486544e+08  0.5            18055000       0              0              0              0
Averages over the last 751 of 1501 rows, steps 36255000 to 36405000:
Temp Press PotEng Density KinEng TotEng Lx Ly Lz Xlo Xhi Ylo Yhi Zlo Zhi Volume Dt
300.262 0.967283 -2.76489e+07 2.04854 894.13 -2.7648e+07 625.514 625.514 625.514 2187.24 2812.76 2187.24 2812.76 2187.24 2812.76 2.44744e+08 0.5
Loop time of 27.6368 on 4 procs for 300000 steps with 1000 atoms

# run_style
run_style verlet

# write restart
write_restart ./pgnpmf/600400/equpmf52.res
System init for write_restart ...
Generated 0 of 1 mixed pair_coeff terms from geometric mixing rule
