LAMMPS (23 Jun 2022 - Update 1)
# Read restart
read_restart ./pgnpmf/600400/equpmf67.res
Reading restart file ...
  restart file = 23 Jun 2022, LAMMPS = 23 Jun 2022
  restoring atom style atomic from restart
  orthogonal box = (2187.7325 2187.7325 2187.7325) to (2812.2675 2812.2675 2812.2675)
  restoring pair style table from restart
  1000 atoms
  read_restart CPU = 0.014 seconds

# Settings

pair_style table spline 9941

pair_coeff 1 1 ./pgnpmf/N20.txt DE_GNP 75.6
pair_coeff 2 2 ./pgnpmf/N100.txt DE_GNP 115.92
pair_coeff 1 2 ./pgnpmf/mixed_potential.txt DE_GNP 95.66

#Neigh_list Calc Frequency

neigh_modify delay 0 every 1 check yes

# Saving Frequency (50 frames)

variable ts_save equal 5000

# Dump
#dump_modify 1 first no sort id
#dump 2 all cfg 50000 ./equilibration/trajectory/ovito/dumpgen.tens_*.cfg mass type xs ys zs fx fy fz

# thermo_style
thermo_style custom step temp press pe density ke etotal lx ly lz xlo xhi ylo yhi zlo zhi vol dt time cpu tpcpu spcpu cpuremain

# run info
timestep 0.5
thermo 200

# fix

fix 1 all momentum 1000 linear 1 1 1 angular
variable T equal 300
fix 2 all nvt temp 300 370000 100.0

run 100000
Generated 0 of 1 mixed pair_coeff terms from geometric mixing rule
Unused restart file global fix info:
  fix style: npt, fix ID: 5
  update every 1 steps, delay 0 steps, check yes
Step          Temp          Press          PotEng        Density         KinEng         TotEng           Lx             Ly             Lz            Xlo            Xhi            Ylo            Yhi            Zlo            Zhi           Volume           Dt            Time           CPU           T/CPU          S/CPU         CPULeft
46905000   298.07149     -2.6648714     -27864779       2.0581952      887.606       -27863891       624.53493      624.53493      624.53493      2187.7325      2812.2675      2187.7325      2812.2675      2187.7325      2812.2675      2.4359603e+08  0.5            23455000       0              0              0              0
Averages over the last 251 of 501 rows, steps 46955000 to 47005000:
Temp Press PotEng Density KinEng TotEng Lx Ly Lz Xlo Xhi Ylo Yhi Zlo Zhi Volume Dt
277239 2524.96 -2.70058e+07 2.0582 825569 -2.61803e+07 624.535 624.535 624.535 2187.73 2812.27 2187.73 2812.27 2187.73 2812.27 2.43596e+08 0.5
Loop time of 7.54581 on 4 procs for 100000 steps with 1000 atoms

unfix 2

fix 3 all nvt temp 370000 370000 $(100.0*dt) #iso 1.0 1.0 $(1000.0*dt)
fix 3 all nvt temp 370000 370000 50

run 200000
Generated 0 of 1 mixed pair_coeff terms from geometric mixing rule
Step          Temp          Press          PotEng        Density         KinEng         TotEng           Lx             Ly             Lz            Xlo            Xhi            Ylo            Yhi            Zlo            Zhi           Volume           Dt            Time           CPU           T/CPU          S/CPU         CPULeft
47005000   365598.06      3069.8032     -26743965       2.0581952      1088688.6     -25655276       624.53493      624.53493      624.53493      2187.7325      2812.2675      2187.7325      2812.2675      2187.7325      2812.2675      2.4359603e+08  0.5            23505000       0              0              0              0
Averages over the last 501 of 1001 rows, steps 47105000 to 47205000:
Temp Press PotEng Density KinEng TotEng Lx Ly Lz Xlo Xhi Ylo Yhi Zlo Zhi Volume Dt
369816 3226.4 -2.67119e+07 2.0582 1.10125e+06 -2.56107e+07 624.535 624.535 624.535 2187.73 2812.27 2187.73 2812.27 2187.73 2812.27 2.43596e+08 0.5
Loop time of 15.1821 on 4 procs for 200000 steps with 1000 atoms

unfix 3

fix 4 all nvt temp 370000 300 100.0

run 100000
Generated 0 of 1 mixed pair_coeff terms from geometric mixing rule
Step          Temp          Press          PotEng        Density         KinEng         TotEng           Lx             Ly             Lz            Xlo            Xhi            Ylo            Yhi            Zlo            Zhi           Volume           Dt            Time           CPU           T/CPU          S/CPU         CPULeft
47205000   377302.09      3311.0507     -26709954       2.0581952      1123541.2     -25586413       624.53493      624.53493      624.53493      2187.7325      2812.2675      2187.7325      2812.2675      2187.7325      2812.2675      2.4359603e+08  0.5            23605000       0              0              0              0
Averages over the last 251 of 501 rows, steps 47255000 to 47305000:
Temp Press PotEng Density KinEng TotEng Lx Ly Lz Xlo Xhi Ylo Yhi Zlo Zhi Volume Dt
93189 935.567 -2.74374e+07 2.0582 277501 -2.71599e+07 624.535 624.535 624.535 2187.73 2812.27 2187.73 2812.27 2187.73 2812.27 2.43596e+08 0.5
Loop time of 7.5149 on 4 procs for 100000 steps with 1000 atoms

unfix 4

fix 5 all npt temp 300 300 $(100.0*dt) iso 1.0 1.0 $(1000.0*dt)
fix 5 all npt temp 300 300 50 iso 1.0 1.0 $(1000.0*dt)
fix 5 all npt temp 300 300 50 iso 1.0 1.0 500

run 300000
Generated 0 of 1 mixed pair_coeff terms from geometric mixing rule
Step          Temp          Press          PotEng        Density         KinEng         TotEng           Lx             Ly             Lz            Xlo            Xhi            Ylo            Yhi            Zlo            Zhi           Volume           Dt            Time           CPU           T/CPU          S/CPU         CPULeft
47305000   1392.6712      135.82101     -27697733       2.0581952      4147.1369     -27693586       624.53493      624.53493      624.53493      2187.7325      2812.2675      2187.7325      2812.2675      2187.7325      2812.2675      2.4359603e+08  0.5            23655000       0              0              0              0
Averages over the last 751 of 1501 rows, steps 47455000 to 47605000:
Temp Press PotEng Density KinEng TotEng Lx Ly Lz Xlo Xhi Ylo Yhi Zlo Zhi Volume Dt
300.233 0.811296 -2.77293e+07 2.05715 894.042 -2.77284e+07 624.641 624.641 624.641 2187.68 2812.32 2187.68 2812.32 2187.68 2812.32 2.4372e+08 0.5
Loop time of 26.4029 on 4 procs for 300000 steps with 1000 atoms

# run_style
run_style verlet

# write restart
write_restart ./pgnpmf/600400/equpmf68.res
System init for write_restart ...
Generated 0 of 1 mixed pair_coeff terms from geometric mixing rule
