LAMMPS (23 Jun 2022 - Update 1)
# Read restart
read_restart ./pgnpmf/600400/equpmf16.res
Reading restart file ...
  restart file = 23 Jun 2022, LAMMPS = 23 Jun 2022
  restoring atom style atomic from restart
  orthogonal box = (2021.9281 2021.9281 2021.9281) to (2978.0719 2978.0719 2978.0719)
  restoring pair style table from restart
  1000 atoms
  read_restart CPU = 0.015 seconds

# Settings

pair_style table spline 9941

pair_coeff 1 1 ./pgnpmf/N20.txt DE_GNP 75.6
pair_coeff 2 2 ./pgnpmf/N100.txt DE_GNP 115.92
pair_coeff 1 2 ./pgnpmf/mixed_potential.txt DE_GNP 95.66

#Neigh_list Calc Frequency

neigh_modify delay 0 every 1 check yes

# Saving Frequency (50 frames)

variable ts_save equal 5000

# Dump
#dump_modify 1 first no sort id
#dump 2 all cfg 50000 ./equilibration/trajectory/ovito/dumpgen.tens_*.cfg mass type xs ys zs fx fy fz

# thermo_style
thermo_style custom step temp press pe density ke etotal lx ly lz xlo xhi ylo yhi zlo zhi vol dt time cpu tpcpu spcpu cpuremain

# run info
timestep 0.5
thermo 200

# fix

fix 1 all momentum 1000 linear 1 1 1 angular
variable T equal 300
fix 2 all nvt temp 300 370000 100.0

run 100000
Generated 0 of 1 mixed pair_coeff terms from geometric mixing rule
Unused restart file global fix info:
  fix style: npt, fix ID: 5
  update every 1 steps, delay 0 steps, check yes
Step          Temp          Press          PotEng        Density         KinEng         TotEng           Lx             Ly             Lz            Xlo            Xhi            Ylo            Yhi            Zlo            Zhi           Volume           Dt            Time           CPU           T/CPU          S/CPU         CPULeft
11205000   311.14461     -0.0018775472  -17789730       0.57357104     926.53552     -17788803       956.14373      956.14373      956.14373      2021.9281      2978.0719      2021.9281      2978.0719      2021.9281      2978.0719      8.7411696e+08  0.5            5605000        0              0              0              0
Averages over the last 251 of 501 rows, steps 11255000 to 11305000:
Temp Press PotEng Density KinEng TotEng Lx Ly Lz Xlo Xhi Ylo Yhi Zlo Zhi Volume Dt
277474 39.7771 -1.78158e+07 0.573571 826269 -1.69895e+07 956.144 956.144 956.144 2021.93 2978.07 2021.93 2978.07 2021.93 2978.07 8.74117e+08 0.5
Loop time of 6.87036 on 4 procs for 100000 steps with 1000 atoms

unfix 2

fix 3 all nvt temp 370000 370000 $(100.0*dt) #iso 1.0 1.0 $(1000.0*dt)
fix 3 all nvt temp 370000 370000 50

run 200000
Generated 0 of 1 mixed pair_coeff terms from geometric mixing rule
Step          Temp          Press          PotEng        Density         KinEng         TotEng           Lx             Ly             Lz            Xlo            Xhi            Ylo            Yhi            Zlo            Zhi           Volume           Dt            Time           CPU           T/CPU          S/CPU         CPULeft
11305000   369012.46      41.474108     -17416535       0.57357104     1098856.1     -16317679       956.14373      956.14373      956.14373      2021.9281      2978.0719      2021.9281      2978.0719      2021.9281      2978.0719      8.7411696e+08  0.5            5655000        0              0              0              0
Averages over the last 501 of 1001 rows, steps 11405000 to 11505000:
Temp Press PotEng Density KinEng TotEng Lx Ly Lz Xlo Xhi Ylo Yhi Zlo Zhi Volume Dt
369887 22.0345 -1.6834e+07 0.573571 1.10146e+06 -1.57326e+07 956.144 956.144 956.144 2021.93 2978.07 2021.93 2978.07 2021.93 2978.07 8.74117e+08 0.5
Loop time of 13.6787 on 4 procs for 200000 steps with 1000 atoms

unfix 3

fix 4 all nvt temp 370000 300 100.0

run 100000
Generated 0 of 1 mixed pair_coeff terms from geometric mixing rule
Step          Temp          Press          PotEng        Density         KinEng         TotEng           Lx             Ly             Lz            Xlo            Xhi            Ylo            Yhi            Zlo            Zhi           Volume           Dt            Time           CPU           T/CPU          S/CPU         CPULeft
11505000   371372.35      34.644938     -16838050       0.57357104     1105883.4     -15732166       956.14373      956.14373      956.14373      2021.9281      2978.0719      2021.9281      2978.0719      2021.9281      2978.0719      8.7411696e+08  0.5            5755000        0              0              0              0
Averages over the last 251 of 501 rows, steps 11555000 to 11605000:
Temp Press PotEng Density KinEng TotEng Lx Ly Lz Xlo Xhi Ylo Yhi Zlo Zhi Volume Dt
93137.4 -96.4812 -1.76376e+07 0.573571 277347 -1.73603e+07 956.144 956.144 956.144 2021.93 2978.07 2021.93 2978.07 2021.93 2978.07 8.74117e+08 0.5
Loop time of 6.6887 on 4 procs for 100000 steps with 1000 atoms

unfix 4

fix 5 all npt temp 300 300 $(100.0*dt) iso 1.0 1.0 $(1000.0*dt)
fix 5 all npt temp 300 300 50 iso 1.0 1.0 $(1000.0*dt)
fix 5 all npt temp 300 300 50 iso 1.0 1.0 500

run 300000
Generated 0 of 1 mixed pair_coeff terms from geometric mixing rule
Step          Temp          Press          PotEng        Density         KinEng         TotEng           Lx             Ly             Lz            Xlo            Xhi            Ylo            Yhi            Zlo            Zhi           Volume           Dt            Time           CPU           T/CPU          S/CPU         CPULeft
11605000   1366.1717     -137.65087     -18135670       0.57357104     4068.2261     -18131602       956.14373      956.14373      956.14373      2021.9281      2978.0719      2021.9281      2978.0719      2021.9281      2978.0719      8.7411696e+08  0.5            5805000        0              0              0              0
Averages over the last 751 of 1501 rows, steps 11755000 to 11905000:
Temp Press PotEng Density KinEng TotEng Lx Ly Lz Xlo Xhi Ylo Yhi Zlo Zhi Volume Dt
310.555 1.01397 -1.86974e+07 0.607442 924.78 -1.86965e+07 938.036 938.036 938.036 2030.98 2969.02 2030.98 2969.02 2030.98 2969.02 8.25396e+08 0.5
Loop time of 24.8426 on 4 procs for 300000 steps with 1000 atoms

# run_style
run_style verlet

# write restart
write_restart ./pgnpmf/600400/equpmf17.res
System init for write_restart ...
Generated 0 of 1 mixed pair_coeff terms from geometric mixing rule
