LAMMPS (23 Jun 2022 - Update 1)
# Read restart
read_restart ./pgnpmf/600400/equpmf17.res
Reading restart file ...
  restart file = 23 Jun 2022, LAMMPS = 23 Jun 2022
  restoring atom style atomic from restart
  orthogonal box = (2032.2259 2032.2259 2032.2259) to (2967.7741 2967.7741 2967.7741)
  restoring pair style table from restart
  1000 atoms
  read_restart CPU = 0.013 seconds

# Settings

pair_style table spline 9941

pair_coeff 1 1 ./pgnpmf/N20.txt DE_GNP 75.6
pair_coeff 2 2 ./pgnpmf/N100.txt DE_GNP 115.92
pair_coeff 1 2 ./pgnpmf/mixed_potential.txt DE_GNP 95.66

#Neigh_list Calc Frequency

neigh_modify delay 0 every 1 check yes

# Saving Frequency (50 frames)

variable ts_save equal 5000

# Dump
#dump_modify 1 first no sort id
#dump 2 all cfg 50000 ./equilibration/trajectory/ovito/dumpgen.tens_*.cfg mass type xs ys zs fx fy fz

# thermo_style
thermo_style custom step temp press pe density ke etotal lx ly lz xlo xhi ylo yhi zlo zhi vol dt time cpu tpcpu spcpu cpuremain

# run info
timestep 0.5
thermo 200

# fix

fix 1 all momentum 1000 linear 1 1 1 angular
variable T equal 300
fix 2 all nvt temp 300 370000 100.0

run 100000
Generated 0 of 1 mixed pair_coeff terms from geometric mixing rule
Unused restart file global fix info:
  fix style: npt, fix ID: 5
  update every 1 steps, delay 0 steps, check yes
Step          Temp          Press          PotEng        Density         KinEng         TotEng           Lx             Ly             Lz            Xlo            Xhi            Ylo            Yhi            Zlo            Zhi           Volume           Dt            Time           CPU           T/CPU          S/CPU         CPULeft
11905000   309.28473     -0.40670792    -18780812       0.61229136     920.99713     -18779892       935.5483       935.5483       935.5483       2032.2259      2967.7741      2032.2259      2967.7741      2032.2259      2967.7741      8.1883922e+08  0.5            5955000        0              0              0              0
Averages over the last 251 of 501 rows, steps 11955000 to 12005000:
Temp Press PotEng Density KinEng TotEng Lx Ly Lz Xlo Xhi Ylo Yhi Zlo Zhi Volume Dt
277651 28.4005 -1.85545e+07 0.612291 826798 -1.77277e+07 935.548 935.548 935.548 2032.23 2967.77 2032.23 2967.77 2032.23 2967.77 8.18839e+08 0.5
Loop time of 6.80204 on 4 procs for 100000 steps with 1000 atoms

unfix 2

fix 3 all nvt temp 370000 370000 $(100.0*dt) #iso 1.0 1.0 $(1000.0*dt)
fix 3 all nvt temp 370000 370000 50

run 200000
Generated 0 of 1 mixed pair_coeff terms from geometric mixing rule
Step          Temp          Press          PotEng        Density         KinEng         TotEng           Lx             Ly             Lz            Xlo            Xhi            Ylo            Yhi            Zlo            Zhi           Volume           Dt            Time           CPU           T/CPU          S/CPU         CPULeft
12005000   364292.22     -0.44442547    -18198656       0.61229136     1084800       -17113856       935.5483       935.5483       935.5483       2032.2259      2967.7741      2032.2259      2967.7741      2032.2259      2967.7741      8.1883922e+08  0.5            6005000        0              0              0              0
Averages over the last 501 of 1001 rows, steps 12105000 to 12205000:
Temp Press PotEng Density KinEng TotEng Lx Ly Lz Xlo Xhi Ylo Yhi Zlo Zhi Volume Dt
369747 22.4757 -1.76315e+07 0.612291 1.10104e+06 -1.65304e+07 935.548 935.548 935.548 2032.23 2967.77 2032.23 2967.77 2032.23 2967.77 8.18839e+08 0.5
Loop time of 13.7516 on 4 procs for 200000 steps with 1000 atoms

unfix 3

fix 4 all nvt temp 370000 300 100.0

run 100000
Generated 0 of 1 mixed pair_coeff terms from geometric mixing rule
Step          Temp          Press          PotEng        Density         KinEng         TotEng           Lx             Ly             Lz            Xlo            Xhi            Ylo            Yhi            Zlo            Zhi           Volume           Dt            Time           CPU           T/CPU          S/CPU         CPULeft
12205000   395779.14     -8.4172075     -17548974       0.61229136     1178562.7     -16370411       935.5483       935.5483       935.5483       2032.2259      2967.7741      2032.2259      2967.7741      2032.2259      2967.7741      8.1883922e+08  0.5            6105000        0              0              0              0
Averages over the last 251 of 501 rows, steps 12255000 to 12305000:
Temp Press PotEng Density KinEng TotEng Lx Ly Lz Xlo Xhi Ylo Yhi Zlo Zhi Volume Dt
93062.3 -95.6344 -1.84606e+07 0.612291 277124 -1.81835e+07 935.548 935.548 935.548 2032.23 2967.77 2032.23 2967.77 2032.23 2967.77 8.18839e+08 0.5
Loop time of 6.92713 on 4 procs for 100000 steps with 1000 atoms

unfix 4

fix 5 all npt temp 300 300 $(100.0*dt) iso 1.0 1.0 $(1000.0*dt)
fix 5 all npt temp 300 300 50 iso 1.0 1.0 $(1000.0*dt)
fix 5 all npt temp 300 300 50 iso 1.0 1.0 500

run 300000
Generated 0 of 1 mixed pair_coeff terms from geometric mixing rule
Step          Temp          Press          PotEng        Density         KinEng         TotEng           Lx             Ly             Lz            Xlo            Xhi            Ylo            Yhi            Zlo            Zhi           Volume           Dt            Time           CPU           T/CPU          S/CPU         CPULeft
12305000   1363.8121     -124.97482     -18896696       0.61229136     4061.1995     -18892635       935.5483       935.5483       935.5483       2032.2259      2967.7741      2032.2259      2967.7741      2032.2259      2967.7741      8.1883922e+08  0.5            6155000        0              0              0              0
Averages over the last 751 of 1501 rows, steps 12455000 to 12605000:
Temp Press PotEng Density KinEng TotEng Lx Ly Lz Xlo Xhi Ylo Yhi Zlo Zhi Volume Dt
310.85 0.972217 -1.93144e+07 0.643647 925.659 -1.93135e+07 920.108 920.108 920.108 2039.95 2960.05 2039.95 2960.05 2039.95 2960.05 7.78969e+08 0.5
Loop time of 25.7384 on 4 procs for 300000 steps with 1000 atoms

# run_style
run_style verlet

# write restart
write_restart ./pgnpmf/600400/equpmf18.res
System init for write_restart ...
Generated 0 of 1 mixed pair_coeff terms from geometric mixing rule
