LAMMPS (23 Jun 2022 - Update 1)
# Read restart
read_restart ./pgnpmf/600400/equpmf42.res
Reading restart file ...
  restart file = 23 Jun 2022, LAMMPS = 23 Jun 2022
  restoring atom style atomic from restart
  orthogonal box = (2186.8456 2186.8456 2186.8456) to (2813.1544 2813.1544 2813.1544)
  restoring pair style table from restart
  1000 atoms
  read_restart CPU = 0.014 seconds

# Settings

pair_style table spline 9941

pair_coeff 1 1 ./pgnpmf/N20.txt DE_GNP 75.6
pair_coeff 2 2 ./pgnpmf/N100.txt DE_GNP 115.92
pair_coeff 1 2 ./pgnpmf/mixed_potential.txt DE_GNP 95.66

#Neigh_list Calc Frequency

neigh_modify delay 0 every 1 check yes

# Saving Frequency (50 frames)

variable ts_save equal 5000

# Dump
#dump_modify 1 first no sort id
#dump 2 all cfg 50000 ./equilibration/trajectory/ovito/dumpgen.tens_*.cfg mass type xs ys zs fx fy fz

# thermo_style
thermo_style custom step temp press pe density ke etotal lx ly lz xlo xhi ylo yhi zlo zhi vol dt time cpu tpcpu spcpu cpuremain

# run info
timestep 0.5
thermo 200

# fix

fix 1 all momentum 1000 linear 1 1 1 angular
variable T equal 300
fix 2 all nvt temp 300 370000 100.0

run 100000
Generated 0 of 1 mixed pair_coeff terms from geometric mixing rule
Unused restart file global fix info:
  fix style: npt, fix ID: 5
  update every 1 steps, delay 0 steps, check yes
Step          Temp          Press          PotEng        Density         KinEng         TotEng           Lx             Ly             Lz            Xlo            Xhi            Ylo            Yhi            Zlo            Zhi           Volume           Dt            Time           CPU           T/CPU          S/CPU         CPULeft
29405000   293.60438     -7.7522961     -27564730       2.0407561      874.30372     -27563856       626.30886      626.30886      626.30886      2186.8456      2813.1544      2186.8456      2813.1544      2186.8456      2813.1544      2.4567766e+08  0.5            14705000       0              0              0              0
Averages over the last 251 of 501 rows, steps 29455000 to 29505000:
Temp Press PotEng Density KinEng TotEng Lx Ly Lz Xlo Xhi Ylo Yhi Zlo Zhi Volume Dt
277727 2481.94 -2.67577e+07 2.04076 827023 -2.59306e+07 626.309 626.309 626.309 2186.85 2813.15 2186.85 2813.15 2186.85 2813.15 2.45678e+08 0.5
Loop time of 7.82352 on 4 procs for 100000 steps with 1000 atoms

unfix 2

fix 3 all nvt temp 370000 370000 $(100.0*dt) #iso 1.0 1.0 $(1000.0*dt)
fix 3 all nvt temp 370000 370000 50

run 200000
Generated 0 of 1 mixed pair_coeff terms from geometric mixing rule
Step          Temp          Press          PotEng        Density         KinEng         TotEng           Lx             Ly             Lz            Xlo            Xhi            Ylo            Yhi            Zlo            Zhi           Volume           Dt            Time           CPU           T/CPU          S/CPU         CPULeft
29505000   374027.03      3043.9298     -26479520       2.0407561      1113788.6     -25365732       626.30886      626.30886      626.30886      2186.8456      2813.1544      2186.8456      2813.1544      2186.8456      2813.1544      2.4567766e+08  0.5            14755000       0              0              0              0
Averages over the last 501 of 1001 rows, steps 29605000 to 29705000:
Temp Press PotEng Density KinEng TotEng Lx Ly Lz Xlo Xhi Ylo Yhi Zlo Zhi Volume Dt
370179 3110.63 -2.64959e+07 2.04076 1.10233e+06 -2.53936e+07 626.309 626.309 626.309 2186.85 2813.15 2186.85 2813.15 2186.85 2813.15 2.45678e+08 0.5
Loop time of 15.7255 on 4 procs for 200000 steps with 1000 atoms

unfix 3

fix 4 all nvt temp 370000 300 100.0

run 100000
Generated 0 of 1 mixed pair_coeff terms from geometric mixing rule
Step          Temp          Press          PotEng        Density         KinEng         TotEng           Lx             Ly             Lz            Xlo            Xhi            Ylo            Yhi            Zlo            Zhi           Volume           Dt            Time           CPU           T/CPU          S/CPU         CPULeft
29705000   378323.46      3086.4102     -26482388       2.0407561      1126582.7     -25355805       626.30886      626.30886      626.30886      2186.8456      2813.1544      2186.8456      2813.1544      2186.8456      2813.1544      2.4567766e+08  0.5            14855000       0              0              0              0
Averages over the last 251 of 501 rows, steps 29755000 to 29805000:
Temp Press PotEng Density KinEng TotEng Lx Ly Lz Xlo Xhi Ylo Yhi Zlo Zhi Volume Dt
93039 808.094 -2.72761e+07 2.04076 277054 -2.69991e+07 626.309 626.309 626.309 2186.85 2813.15 2186.85 2813.15 2186.85 2813.15 2.45678e+08 0.5
Loop time of 7.78396 on 4 procs for 100000 steps with 1000 atoms

unfix 4

fix 5 all npt temp 300 300 $(100.0*dt) iso 1.0 1.0 $(1000.0*dt)
fix 5 all npt temp 300 300 50 iso 1.0 1.0 $(1000.0*dt)
fix 5 all npt temp 300 300 50 iso 1.0 1.0 500

run 300000
Generated 0 of 1 mixed pair_coeff terms from geometric mixing rule
Step          Temp          Press          PotEng        Density         KinEng         TotEng           Lx             Ly             Lz            Xlo            Xhi            Ylo            Yhi            Zlo            Zhi           Volume           Dt            Time           CPU           T/CPU          S/CPU         CPULeft
29805000   1372.3146     -22.197815     -27567040       2.0407561      4086.5186     -27562954       626.30886      626.30886      626.30886      2186.8456      2813.1544      2186.8456      2813.1544      2186.8456      2813.1544      2.4567766e+08  0.5            14905000       0              0              0              0
Averages over the last 751 of 1501 rows, steps 29955000 to 30105000:
Temp Press PotEng Density KinEng TotEng Lx Ly Lz Xlo Xhi Ylo Yhi Zlo Zhi Volume Dt
300.326 0.977506 -2.76275e+07 2.04432 894.32 -2.76266e+07 625.945 625.945 625.945 2187.03 2812.97 2187.03 2812.97 2187.03 2812.97 2.4525e+08 0.5
Loop time of 27.2987 on 4 procs for 300000 steps with 1000 atoms

# run_style
run_style verlet

# write restart
write_restart ./pgnpmf/600400/equpmf43.res
System init for write_restart ...
Generated 0 of 1 mixed pair_coeff terms from geometric mixing rule
