LAMMPS (23 Jun 2022 - Update 1)
# Read restart
read_restart ./pgnpmf/2080/equpmf63.res
Reading restart file ...
  restart file = 23 Jun 2022, LAMMPS = 23 Jun 2022
  restoring atom style atomic from restart
  orthogonal box = (1639.3927 1639.3927 1639.3927) to (2360.6073 2360.6073 2360.6073)
  restoring pair style table from restart
  1000 atoms
  read_restart CPU = 0.014 seconds

# Settings

pair_style table spline 9941

pair_coeff 1 1 ./pgnpmf/N20.txt DE_GNP 75.6
pair_coeff 2 2 ./pgnpmf/N100.txt DE_GNP 115.92
pair_coeff 1 2 ./pgnpmf/mixed_potential.txt DE_GNP 95.66

#Neigh_list Calc Frequency

neigh_modify delay 0 every 1 check yes

# Saving Frequency (50 frames)

variable ts_save equal 5000

# Dump
#dump_modify 1 first no sort id
dump 2 all cfg 50000 ./pgnpmf/2080/equilibration/trajectory/dumpgen.tens_*.cfg mass type xs ys zs fx fy fz
dump_modify 2 element N20 N100

# thermo_style
thermo_style custom step temp press pe density ke etotal lx ly lz xlo xhi ylo yhi zlo zhi vol dt time cpu tpcpu spcpu cpuremain

# run info
timestep 0.25
thermo 200

# fix

fix 1 all momentum 1000 linear 1 1 1 angular
variable T equal 300
fix 2 all nvt temp 300 370000 100.0

run 100000
Generated 0 of 1 mixed pair_coeff terms from geometric mixing rule
Unused restart file global fix info:
  fix style: npt, fix ID: 5
  update every 1 steps, delay 0 steps, check yes
Step          Temp          Press          PotEng        Density         KinEng         TotEng           Lx             Ly             Lz            Xlo            Xhi            Ylo            Yhi            Zlo            Zhi           Volume           Dt            Time           CPU           T/CPU          S/CPU         CPULeft
64010000   287.04673      5.5375046     -50630239       1.6909523      854.77615     -50629384       721.21463      721.21463      721.21463      1639.3927      2360.6073      1639.3927      2360.6073      1639.3927      2360.6073      3.7514018e+08  0.25           16760000       0              0              0              0
Averages over the last 251 of 501 rows, steps 64060000 to 64110000:
Temp Press PotEng Density KinEng TotEng Lx Ly Lz Xlo Xhi Ylo Yhi Zlo Zhi Volume Dt
277411 1616.56 -4.98588e+07 1.69095 826081 -4.90327e+07 721.215 721.215 721.215 1639.39 2360.61 1639.39 2360.61 1639.39 2360.61 3.7514e+08 0.25
Loop time of 18.0872 on 4 procs for 100000 steps with 1000 atoms

unfix 2

fix 3 all nvt temp 370000 370000 $(100.0*dt) #iso 1.0 1.0 $(1000.0*dt)
fix 3 all nvt temp 370000 370000 25

run 500000
Generated 0 of 1 mixed pair_coeff terms from geometric mixing rule
Step          Temp          Press          PotEng        Density         KinEng         TotEng           Lx             Ly             Lz            Xlo            Xhi            Ylo            Yhi            Zlo            Zhi           Volume           Dt            Time           CPU           T/CPU          S/CPU         CPULeft
64110000   367235.52      2406.1934     -49470549       1.6909523      1093564.7     -48376984       721.21463      721.21463      721.21463      1639.3927      2360.6073      1639.3927      2360.6073      1639.3927      2360.6073      3.7514018e+08  0.25           16785000       0              0              0              0
Averages over the last 1251 of 2501 rows, steps 64360000 to 64610000:
Temp Press PotEng Density KinEng TotEng Lx Ly Lz Xlo Xhi Ylo Yhi Zlo Zhi Volume Dt
369898 1986.46 -4.94465e+07 1.69095 1.10149e+06 -4.8345e+07 721.215 721.215 721.215 1639.39 2360.61 1639.39 2360.61 1639.39 2360.61 3.7514e+08 0.25
Loop time of 92.3219 on 4 procs for 500000 steps with 1000 atoms

unfix 3

fix 4 all nvt temp 370000 300 100.0

run 100000
Generated 0 of 1 mixed pair_coeff terms from geometric mixing rule
Step          Temp          Press          PotEng        Density         KinEng         TotEng           Lx             Ly             Lz            Xlo            Xhi            Ylo            Yhi            Zlo            Zhi           Volume           Dt            Time           CPU           T/CPU          S/CPU         CPULeft
64610000   370866.57      1950.7865     -49510807       1.6909523      1104377.3     -48406430       721.21463      721.21463      721.21463      1639.3927      2360.6073      1639.3927      2360.6073      1639.3927      2360.6073      3.7514018e+08  0.25           16910000       0              0              0              0
Averages over the last 251 of 501 rows, steps 64660000 to 64710000:
Temp Press PotEng Density KinEng TotEng Lx Ly Lz Xlo Xhi Ylo Yhi Zlo Zhi Volume Dt
93773.4 540.276 -5.02122e+07 1.69095 279241 -4.99329e+07 721.215 721.215 721.215 1639.39 2360.61 1639.39 2360.61 1639.39 2360.61 3.7514e+08 0.25
Loop time of 18.4988 on 4 procs for 100000 steps with 1000 atoms

unfix 4

fix 5 all npt temp 300 300 $(100.0*dt) iso 1.0 1.0 $(1000.0*dt)
fix 5 all npt temp 300 300 25 iso 1.0 1.0 $(1000.0*dt)
fix 5 all npt temp 300 300 25 iso 1.0 1.0 250

run 300000
Generated 0 of 1 mixed pair_coeff terms from geometric mixing rule
Step          Temp          Press          PotEng        Density         KinEng         TotEng           Lx             Ly             Lz            Xlo            Xhi            Ylo            Yhi            Zlo            Zhi           Volume           Dt            Time           CPU           T/CPU          S/CPU         CPULeft
64710000   2388.4625      97.405394     -50461803       1.6909523      7112.4335     -50454691       721.21463      721.21463      721.21463      1639.3927      2360.6073      1639.3927      2360.6073      1639.3927      2360.6073      3.7514018e+08  0.25           16935000       0              0              0              0
Averages over the last 751 of 1501 rows, steps 64860000 to 65010000:
Temp Press PotEng Density KinEng TotEng Lx Ly Lz Xlo Xhi Ylo Yhi Zlo Zhi Volume Dt
301.92 1.02654 -5.05468e+07 1.69209 899.066 -5.05459e+07 721.053 721.053 721.053 1639.47 2360.53 1639.47 2360.53 1639.47 2360.53 3.74888e+08 0.25
Loop time of 64.61 on 4 procs for 300000 steps with 1000 atoms

# run_style
run_style verlet

# write restart
write_restart ./pgnpmf/2080/equpmf64.res
System init for write_restart ...
Generated 0 of 1 mixed pair_coeff terms from geometric mixing rule
