LAMMPS (23 Jun 2022 - Update 1)
# Read restart
read_restart ./pgnpmf/2080/equpmf27.res
Reading restart file ...
  restart file = 23 Jun 2022, LAMMPS = 23 Jun 2022
  restoring atom style atomic from restart
  orthogonal box = (1557.5377 1557.5377 1557.5377) to (2442.4623 2442.4623 2442.4623)
  restoring pair style table from restart
  1000 atoms
  read_restart CPU = 0.010 seconds

# Settings

pair_style table spline 9941

pair_coeff 1 1 ./pgnpmf/N20.txt DE_GNP 75.6
pair_coeff 2 2 ./pgnpmf/N100.txt DE_GNP 115.92
pair_coeff 1 2 ./pgnpmf/mixed_potential.txt DE_GNP 95.66

#Neigh_list Calc Frequency

neigh_modify delay 0 every 1 check yes

# Saving Frequency (50 frames)

variable ts_save equal 5000

# Dump
#dump_modify 1 first no sort id
dump 2 all cfg 50000 ./pgnpmf/2080/equilibration/trajectory/dumpgen.tens_*.cfg mass type xs ys zs fx fy fz
dump_modify 2 element N20 N100

# thermo_style
thermo_style custom step temp press pe density ke etotal lx ly lz xlo xhi ylo yhi zlo zhi vol dt time cpu tpcpu spcpu cpuremain

# run info
timestep 0.25
thermo 200

# fix

fix 1 all momentum 1000 linear 1 1 1 angular
variable T equal 300
fix 2 all nvt temp 300 370000 100.0

run 100000
Generated 0 of 1 mixed pair_coeff terms from geometric mixing rule
Unused restart file global fix info:
  fix style: npt, fix ID: 5
  update every 1 steps, delay 0 steps, check yes
Step          Temp          Press          PotEng        Density         KinEng         TotEng           Lx             Ly             Lz            Xlo            Xhi            Ylo            Yhi            Zlo            Zhi           Volume           Dt            Time           CPU           T/CPU          S/CPU         CPULeft
28010000   308.46094      0.048022928   -42697534       0.91539018     918.544       -42696616       884.92451      884.92451      884.92451      1557.5377      2442.4623      1557.5377      2442.4623      1557.5377      2442.4623      6.9297677e+08  0.25           7760000        0              0              0              0
Averages over the last 251 of 501 rows, steps 28060000 to 28110000:
Temp Press PotEng Density KinEng TotEng Lx Ly Lz Xlo Xhi Ylo Yhi Zlo Zhi Volume Dt
276886 142.504 -4.24682e+07 0.91539 824518 -4.16437e+07 884.925 884.925 884.925 1557.54 2442.46 1557.54 2442.46 1557.54 2442.46 6.92977e+08 0.25
Loop time of 20.7972 on 4 procs for 100000 steps with 1000 atoms

unfix 2

fix 3 all nvt temp 370000 370000 $(100.0*dt) #iso 1.0 1.0 $(1000.0*dt)
fix 3 all nvt temp 370000 370000 25

run 500000
Generated 0 of 1 mixed pair_coeff terms from geometric mixing rule
Step          Temp          Press          PotEng        Density         KinEng         TotEng           Lx             Ly             Lz            Xlo            Xhi            Ylo            Yhi            Zlo            Zhi           Volume           Dt            Time           CPU           T/CPU          S/CPU         CPULeft
28110000   368867.09      304.98074     -42131086       0.91539018     1098423.2     -41032663       884.92451      884.92451      884.92451      1557.5377      2442.4623      1557.5377      2442.4623      1557.5377      2442.4623      6.9297677e+08  0.25           7785000        0              0              0              0
Averages over the last 1251 of 2501 rows, steps 28360000 to 28610000:
Temp Press PotEng Density KinEng TotEng Lx Ly Lz Xlo Xhi Ylo Yhi Zlo Zhi Volume Dt
369917 19.2511 -4.12427e+07 0.91539 1.10155e+06 -4.01411e+07 884.925 884.925 884.925 1557.54 2442.46 1557.54 2442.46 1557.54 2442.46 6.92977e+08 0.25
Loop time of 100.551 on 4 procs for 500000 steps with 1000 atoms

unfix 3

fix 4 all nvt temp 370000 300 100.0

run 100000
Generated 0 of 1 mixed pair_coeff terms from geometric mixing rule
Step          Temp          Press          PotEng        Density         KinEng         TotEng           Lx             Ly             Lz            Xlo            Xhi            Ylo            Yhi            Zlo            Zhi           Volume           Dt            Time           CPU           T/CPU          S/CPU         CPULeft
28610000   358540.93      37.536309     -41247189       0.91539018     1067673.7     -40179515       884.92451      884.92451      884.92451      1557.5377      2442.4623      1557.5377      2442.4623      1557.5377      2442.4623      6.9297677e+08  0.25           7910000        0              0              0              0
Averages over the last 251 of 501 rows, steps 28660000 to 28710000:
Temp Press PotEng Density KinEng TotEng Lx Ly Lz Xlo Xhi Ylo Yhi Zlo Zhi Volume Dt
93854.8 -458.039 -4.20085e+07 0.91539 279484 -4.1729e+07 884.925 884.925 884.925 1557.54 2442.46 1557.54 2442.46 1557.54 2442.46 6.92977e+08 0.25
Loop time of 20.4374 on 4 procs for 100000 steps with 1000 atoms

unfix 4

fix 5 all npt temp 300 300 $(100.0*dt) iso 1.0 1.0 $(1000.0*dt)
fix 5 all npt temp 300 300 25 iso 1.0 1.0 $(1000.0*dt)
fix 5 all npt temp 300 300 25 iso 1.0 1.0 250

run 300000
Generated 0 of 1 mixed pair_coeff terms from geometric mixing rule
Step          Temp          Press          PotEng        Density         KinEng         TotEng           Lx             Ly             Lz            Xlo            Xhi            Ylo            Yhi            Zlo            Zhi           Volume           Dt            Time           CPU           T/CPU          S/CPU         CPULeft
28710000   2349.2811     -583.54964     -42385525       0.91539018     6995.758      -42378530       884.92451      884.92451      884.92451      1557.5377      2442.4623      1557.5377      2442.4623      1557.5377      2442.4623      6.9297677e+08  0.25           7935000        0              0              0              0
Averages over the last 751 of 1501 rows, steps 28860000 to 29010000:
Temp Press PotEng Density KinEng TotEng Lx Ly Lz Xlo Xhi Ylo Yhi Zlo Zhi Volume Dt
310.45 0.985125 -4.32809e+07 0.958997 924.466 -4.328e+07 871.304 871.304 871.304 1564.35 2435.65 1564.35 2435.65 1564.35 2435.65 6.61469e+08 0.25
Loop time of 75.1319 on 4 procs for 300000 steps with 1000 atoms

# run_style
run_style verlet

# write restart
write_restart ./pgnpmf/2080/equpmf28.res
System init for write_restart ...
Generated 0 of 1 mixed pair_coeff terms from geometric mixing rule
