LAMMPS (23 Jun 2022 - Update 1)
# Read restart
read_restart ./pgnpmf/2080/equpmf38.res
Reading restart file ...
  restart file = 23 Jun 2022, LAMMPS = 23 Jun 2022
  restoring atom style atomic from restart
  orthogonal box = (1635.8936 1635.8936 1635.8936) to (2364.1064 2364.1064 2364.1064)
  restoring pair style table from restart
  1000 atoms
  read_restart CPU = 0.014 seconds

# Settings

pair_style table spline 9941

pair_coeff 1 1 ./pgnpmf/N20.txt DE_GNP 75.6
pair_coeff 2 2 ./pgnpmf/N100.txt DE_GNP 115.92
pair_coeff 1 2 ./pgnpmf/mixed_potential.txt DE_GNP 95.66

#Neigh_list Calc Frequency

neigh_modify delay 0 every 1 check yes

# Saving Frequency (50 frames)

variable ts_save equal 5000

# Dump
#dump_modify 1 first no sort id
dump 2 all cfg 50000 ./pgnpmf/2080/equilibration/trajectory/dumpgen.tens_*.cfg mass type xs ys zs fx fy fz
dump_modify 2 element N20 N100

# thermo_style
thermo_style custom step temp press pe density ke etotal lx ly lz xlo xhi ylo yhi zlo zhi vol dt time cpu tpcpu spcpu cpuremain

# run info
timestep 0.25
thermo 200

# fix

fix 1 all momentum 1000 linear 1 1 1 angular
variable T equal 300
fix 2 all nvt temp 300 370000 100.0

run 100000
Generated 0 of 1 mixed pair_coeff terms from geometric mixing rule
Unused restart file global fix info:
  fix style: npt, fix ID: 5
  update every 1 steps, delay 0 steps, check yes
Step          Temp          Press          PotEng        Density         KinEng         TotEng           Lx             Ly             Lz            Xlo            Xhi            Ylo            Yhi            Zlo            Zhi           Volume           Dt            Time           CPU           T/CPU          S/CPU         CPULeft
39010000   304.67175      0.35035217    -49218315       1.6426682      907.26046     -49217408       728.21289      728.21289      728.21289      1635.8936      2364.1064      1635.8936      2364.1064      1635.8936      2364.1064      3.8616694e+08  0.25           10510000       0              0              0              0
Averages over the last 251 of 501 rows, steps 39060000 to 39110000:
Temp Press PotEng Density KinEng TotEng Lx Ly Lz Xlo Xhi Ylo Yhi Zlo Zhi Volume Dt
276994 1036.22 -4.88934e+07 1.64267 824840 -4.80685e+07 728.213 728.213 728.213 1635.89 2364.11 1635.89 2364.11 1635.89 2364.11 3.86167e+08 0.25
Loop time of 18.0674 on 4 procs for 100000 steps with 1000 atoms

unfix 2

fix 3 all nvt temp 370000 370000 $(100.0*dt) #iso 1.0 1.0 $(1000.0*dt)
fix 3 all nvt temp 370000 370000 25

run 500000
Generated 0 of 1 mixed pair_coeff terms from geometric mixing rule
Step          Temp          Press          PotEng        Density         KinEng         TotEng           Lx             Ly             Lz            Xlo            Xhi            Ylo            Yhi            Zlo            Zhi           Volume           Dt            Time           CPU           T/CPU          S/CPU         CPULeft
39110000   368407.67      1605.899      -48629345       1.6426682      1097055.1     -47532290       728.21289      728.21289      728.21289      1635.8936      2364.1064      1635.8936      2364.1064      1635.8936      2364.1064      3.8616694e+08  0.25           10535000       0              0              0              0
Averages over the last 1251 of 2501 rows, steps 39360000 to 39610000:
Temp Press PotEng Density KinEng TotEng Lx Ly Lz Xlo Xhi Ylo Yhi Zlo Zhi Volume Dt
370055 1353.2 -4.86001e+07 1.64267 1.10196e+06 -4.74981e+07 728.213 728.213 728.213 1635.89 2364.11 1635.89 2364.11 1635.89 2364.11 3.86167e+08 0.25
Loop time of 93.5016 on 4 procs for 500000 steps with 1000 atoms

unfix 3

fix 4 all nvt temp 370000 300 100.0

run 100000
Generated 0 of 1 mixed pair_coeff terms from geometric mixing rule
Step          Temp          Press          PotEng        Density         KinEng         TotEng           Lx             Ly             Lz            Xlo            Xhi            Ylo            Yhi            Zlo            Zhi           Volume           Dt            Time           CPU           T/CPU          S/CPU         CPULeft
39610000   375396.01      1278.9953     -48556904       1.6426682      1117865.2     -47439039       728.21289      728.21289      728.21289      1635.8936      2364.1064      1635.8936      2364.1064      1635.8936      2364.1064      3.8616694e+08  0.25           10660000       0              0              0              0
Averages over the last 251 of 501 rows, steps 39660000 to 39710000:
Temp Press PotEng Density KinEng TotEng Lx Ly Lz Xlo Xhi Ylo Yhi Zlo Zhi Volume Dt
93709.2 -188.741 -4.93104e+07 1.64267 279050 -4.90313e+07 728.213 728.213 728.213 1635.89 2364.11 1635.89 2364.11 1635.89 2364.11 3.86167e+08 0.25
Loop time of 18.8164 on 4 procs for 100000 steps with 1000 atoms

unfix 4

fix 5 all npt temp 300 300 $(100.0*dt) iso 1.0 1.0 $(1000.0*dt)
fix 5 all npt temp 300 300 25 iso 1.0 1.0 $(1000.0*dt)
fix 5 all npt temp 300 300 25 iso 1.0 1.0 250

run 300000
Generated 0 of 1 mixed pair_coeff terms from geometric mixing rule
Step          Temp          Press          PotEng        Density         KinEng         TotEng           Lx             Ly             Lz            Xlo            Xhi            Ylo            Yhi            Zlo            Zhi           Volume           Dt            Time           CPU           T/CPU          S/CPU         CPULeft
39710000   2372.9827     -658.76133     -49606351       1.6426682      7066.3374     -49599284       728.21289      728.21289      728.21289      1635.8936      2364.1064      1635.8936      2364.1064      1635.8936      2364.1064      3.8616694e+08  0.25           10685000       0              0              0              0
Averages over the last 751 of 1501 rows, steps 39860000 to 40010000:
Temp Press PotEng Density KinEng TotEng Lx Ly Lz Xlo Xhi Ylo Yhi Zlo Zhi Volume Dt
304.402 1.13978 -5.00297e+07 1.67236 906.457 -5.00288e+07 723.877 723.877 723.877 1638.06 2361.94 1638.06 2361.94 1638.06 2361.94 3.7931e+08 0.25
Loop time of 66.9591 on 4 procs for 300000 steps with 1000 atoms

# run_style
run_style verlet

# write restart
write_restart ./pgnpmf/2080/equpmf39.res
System init for write_restart ...
Generated 0 of 1 mixed pair_coeff terms from geometric mixing rule
