LAMMPS (23 Jun 2022 - Update 1)
# Read restart
read_restart ./pgnpmf/2080/equpmf49.res
Reading restart file ...
  restart file = 23 Jun 2022, LAMMPS = 23 Jun 2022
  restoring atom style atomic from restart
  orthogonal box = (1639.4574 1639.4574 1639.4574) to (2360.5426 2360.5426 2360.5426)
  restoring pair style table from restart
  1000 atoms
  read_restart CPU = 0.015 seconds

# Settings

pair_style table spline 9941

pair_coeff 1 1 ./pgnpmf/N20.txt DE_GNP 75.6
pair_coeff 2 2 ./pgnpmf/N100.txt DE_GNP 115.92
pair_coeff 1 2 ./pgnpmf/mixed_potential.txt DE_GNP 95.66

#Neigh_list Calc Frequency

neigh_modify delay 0 every 1 check yes

# Saving Frequency (50 frames)

variable ts_save equal 5000

# Dump
#dump_modify 1 first no sort id
dump 2 all cfg 50000 ./pgnpmf/2080/equilibration/trajectory/dumpgen.tens_*.cfg mass type xs ys zs fx fy fz
dump_modify 2 element N20 N100

# thermo_style
thermo_style custom step temp press pe density ke etotal lx ly lz xlo xhi ylo yhi zlo zhi vol dt time cpu tpcpu spcpu cpuremain

# run info
timestep 0.25
thermo 200

# fix

fix 1 all momentum 1000 linear 1 1 1 angular
variable T equal 300
fix 2 all nvt temp 300 370000 100.0

run 100000
Generated 0 of 1 mixed pair_coeff terms from geometric mixing rule
Unused restart file global fix info:
  fix style: npt, fix ID: 5
  update every 1 steps, delay 0 steps, check yes
Step          Temp          Press          PotEng        Density         KinEng         TotEng           Lx             Ly             Lz            Xlo            Xhi            Ylo            Yhi            Zlo            Zhi           Volume           Dt            Time           CPU           T/CPU          S/CPU         CPULeft
50010000   296.8022       4.0251315     -50518752       1.6918626      883.82627     -50517868       721.08525      721.08525      721.08525      1639.4574      2360.5426      1639.4574      2360.5426      1639.4574      2360.5426      3.7493833e+08  0.25           13260000       0              0              0              0
Averages over the last 251 of 501 rows, steps 50060000 to 50110000:
Temp Press PotEng Density KinEng TotEng Lx Ly Lz Xlo Xhi Ylo Yhi Zlo Zhi Volume Dt
277514 1529.01 -4.98607e+07 1.69186 826388 -4.90343e+07 721.085 721.085 721.085 1639.46 2360.54 1639.46 2360.54 1639.46 2360.54 3.74938e+08 0.25
Loop time of 18.1253 on 4 procs for 100000 steps with 1000 atoms

unfix 2

fix 3 all nvt temp 370000 370000 $(100.0*dt) #iso 1.0 1.0 $(1000.0*dt)
fix 3 all nvt temp 370000 370000 25

run 500000
Generated 0 of 1 mixed pair_coeff terms from geometric mixing rule
Step          Temp          Press          PotEng        Density         KinEng         TotEng           Lx             Ly             Lz            Xlo            Xhi            Ylo            Yhi            Zlo            Zhi           Volume           Dt            Time           CPU           T/CPU          S/CPU         CPULeft
50110000   369960.85      2152.7132     -49578982       1.6918626      1101680.2     -48477302       721.08525      721.08525      721.08525      1639.4574      2360.5426      1639.4574      2360.5426      1639.4574      2360.5426      3.7493833e+08  0.25           13285000       0              0              0              0
Averages over the last 1251 of 2501 rows, steps 50360000 to 50610000:
Temp Press PotEng Density KinEng TotEng Lx Ly Lz Xlo Xhi Ylo Yhi Zlo Zhi Volume Dt
369827 2026.61 -4.94217e+07 1.69186 1.10128e+06 -4.83205e+07 721.085 721.085 721.085 1639.46 2360.54 1639.46 2360.54 1639.46 2360.54 3.74938e+08 0.25
Loop time of 91.8773 on 4 procs for 500000 steps with 1000 atoms

unfix 3

fix 4 all nvt temp 370000 300 100.0

run 100000
Generated 0 of 1 mixed pair_coeff terms from geometric mixing rule
Step          Temp          Press          PotEng        Density         KinEng         TotEng           Lx             Ly             Lz            Xlo            Xhi            Ylo            Yhi            Zlo            Zhi           Volume           Dt            Time           CPU           T/CPU          S/CPU         CPULeft
50610000   368893.61      1906.1844     -49687478       1.6918626      1098502.2     -48588976       721.08525      721.08525      721.08525      1639.4574      2360.5426      1639.4574      2360.5426      1639.4574      2360.5426      3.7493833e+08  0.25           13410000       0              0              0              0
Averages over the last 251 of 501 rows, steps 50660000 to 50710000:
Temp Press PotEng Density KinEng TotEng Lx Ly Lz Xlo Xhi Ylo Yhi Zlo Zhi Volume Dt
93639.9 554.141 -5.02267e+07 1.69186 278844 -4.99479e+07 721.085 721.085 721.085 1639.46 2360.54 1639.46 2360.54 1639.46 2360.54 3.74938e+08 0.25
Loop time of 18.1563 on 4 procs for 100000 steps with 1000 atoms

unfix 4

fix 5 all npt temp 300 300 $(100.0*dt) iso 1.0 1.0 $(1000.0*dt)
fix 5 all npt temp 300 300 25 iso 1.0 1.0 $(1000.0*dt)
fix 5 all npt temp 300 300 25 iso 1.0 1.0 250

run 300000
Generated 0 of 1 mixed pair_coeff terms from geometric mixing rule
Step          Temp          Press          PotEng        Density         KinEng         TotEng           Lx             Ly             Lz            Xlo            Xhi            Ylo            Yhi            Zlo            Zhi           Volume           Dt            Time           CPU           T/CPU          S/CPU         CPULeft
50710000   2367.3491      102.5975      -50426856       1.6918626      7049.5612     -50419807       721.08525      721.08525      721.08525      1639.4574      2360.5426      1639.4574      2360.5426      1639.4574      2360.5426      3.7493833e+08  0.25           13435000       0              0              0              0
Averages over the last 751 of 1501 rows, steps 50860000 to 51010000:
Temp Press PotEng Density KinEng TotEng Lx Ly Lz Xlo Xhi Ylo Yhi Zlo Zhi Volume Dt
302.104 0.750392 -5.05287e+07 1.69254 899.616 -5.05278e+07 720.989 720.989 720.989 1639.51 2360.49 1639.51 2360.49 1639.51 2360.49 3.74788e+08 0.25
Loop time of 63.2453 on 4 procs for 300000 steps with 1000 atoms

# run_style
run_style verlet

# write restart
write_restart ./pgnpmf/2080/equpmf50.res
System init for write_restart ...
Generated 0 of 1 mixed pair_coeff terms from geometric mixing rule
