LAMMPS (23 Jun 2022 - Update 1)
# Read restart
read_restart ./pgnpmf/2080/equpmf6.res
Reading restart file ...
  restart file = 23 Jun 2022, LAMMPS = 23 Jun 2022
  restoring atom style atomic from restart
  orthogonal box = (1327.4752 1327.4752 1327.4752) to (2672.5248 2672.5248 2672.5248)
  restoring pair style table from restart
  1000 atoms
  read_restart CPU = 0.012 seconds

# Settings

pair_style table spline 9941

pair_coeff 1 1 ./pgnpmf/N20.txt DE_GNP 75.6
pair_coeff 2 2 ./pgnpmf/N100.txt DE_GNP 115.92
pair_coeff 1 2 ./pgnpmf/mixed_potential.txt DE_GNP 95.66

#Neigh_list Calc Frequency

neigh_modify delay 0 every 1 check yes

# Saving Frequency (50 frames)

variable ts_save equal 5000

# Dump
#dump_modify 1 first no sort id
dump 2 all cfg 50000 ./pgnpmf/2080/equilibration/trajectory/dumpgen.tens_*.cfg mass type xs ys zs fx fy fz
dump_modify 2 element N20 N100

# thermo_style
thermo_style custom step temp press pe density ke etotal lx ly lz xlo xhi ylo yhi zlo zhi vol dt time cpu tpcpu spcpu cpuremain

# run info
timestep 0.25
thermo 200

# fix

fix 1 all momentum 1000 linear 1 1 1 angular
variable T equal 300
fix 2 all nvt temp 300 370000 100.0

run 100000
Generated 0 of 1 mixed pair_coeff terms from geometric mixing rule
Unused restart file global fix info:
  fix style: npt, fix ID: 5
  update every 1 steps, delay 0 steps, check yes
Step          Temp          Press          PotEng        Density         KinEng         TotEng           Lx             Ly             Lz            Xlo            Xhi            Ylo            Yhi            Zlo            Zhi           Volume           Dt            Time           CPU           T/CPU          S/CPU         CPULeft
7010000   313.70956      1.1144673     -11894900       0.26068144     934.1735      -11893966       1345.0495      1345.0495      1345.0495      1327.4752      2672.5248      1327.4752      2672.5248      1327.4752      2672.5248      2.4334073e+09  0.25           2510000        0              0              0              0
Averages over the last 251 of 501 rows, steps 7060000 to 7110000:
Temp Press PotEng Density KinEng TotEng Lx Ly Lz Xlo Xhi Ylo Yhi Zlo Zhi Volume Dt
277239 41.7312 -1.24144e+07 0.260681 825570 -1.15888e+07 1345.05 1345.05 1345.05 1327.48 2672.52 1327.48 2672.52 1327.48 2672.52 2.43341e+09 0.25
Loop time of 7.92092 on 4 procs for 100000 steps with 1000 atoms

unfix 2

fix 3 all nvt temp 370000 370000 $(100.0*dt) #iso 1.0 1.0 $(1000.0*dt)
fix 3 all nvt temp 370000 370000 25

run 500000
Generated 0 of 1 mixed pair_coeff terms from geometric mixing rule
Step          Temp          Press          PotEng        Density         KinEng         TotEng           Lx             Ly             Lz            Xlo            Xhi            Ylo            Yhi            Zlo            Zhi           Volume           Dt            Time           CPU           T/CPU          S/CPU         CPULeft
7110000   364849.18      43.692261     -12410934       0.26068144     1086458.6     -11324475       1345.0495      1345.0495      1345.0495      1327.4752      2672.5248      1327.4752      2672.5248      1327.4752      2672.5248      2.4334073e+09  0.25           2535000        0              0              0              0
Averages over the last 1251 of 2501 rows, steps 7360000 to 7610000:
Temp Press PotEng Density KinEng TotEng Lx Ly Lz Xlo Xhi Ylo Yhi Zlo Zhi Volume Dt
369907 3.45757 -1.26129e+07 0.260681 1.10152e+06 -1.15113e+07 1345.05 1345.05 1345.05 1327.48 2672.52 1327.48 2672.52 1327.48 2672.52 2.43341e+09 0.25
Loop time of 41.1339 on 4 procs for 500000 steps with 1000 atoms

unfix 3

fix 4 all nvt temp 370000 300 100.0

run 100000
Generated 0 of 1 mixed pair_coeff terms from geometric mixing rule
Step          Temp          Press          PotEng        Density         KinEng         TotEng           Lx             Ly             Lz            Xlo            Xhi            Ylo            Yhi            Zlo            Zhi           Volume           Dt            Time           CPU           T/CPU          S/CPU         CPULeft
7610000   389044.44      13.701077     -13285357       0.26068144     1158507.9     -12126849       1345.0495      1345.0495      1345.0495      1327.4752      2672.5248      1327.4752      2672.5248      1327.4752      2672.5248      2.4334073e+09  0.25           2660000        0              0              0              0
Averages over the last 251 of 501 rows, steps 7660000 to 7710000:
Temp Press PotEng Density KinEng TotEng Lx Ly Lz Xlo Xhi Ylo Yhi Zlo Zhi Volume Dt
93354.6 -32.954 -1.40014e+07 0.260681 277994 -1.37234e+07 1345.05 1345.05 1345.05 1327.48 2672.52 1327.48 2672.52 1327.48 2672.52 2.43341e+09 0.25
Loop time of 8.37543 on 4 procs for 100000 steps with 1000 atoms

unfix 4

fix 5 all npt temp 300 300 $(100.0*dt) iso 1.0 1.0 $(1000.0*dt)
fix 5 all npt temp 300 300 25 iso 1.0 1.0 $(1000.0*dt)
fix 5 all npt temp 300 300 25 iso 1.0 1.0 250

run 300000
Generated 0 of 1 mixed pair_coeff terms from geometric mixing rule
Step          Temp          Press          PotEng        Density         KinEng         TotEng           Lx             Ly             Lz            Xlo            Xhi            Ylo            Yhi            Zlo            Zhi           Volume           Dt            Time           CPU           T/CPU          S/CPU         CPULeft
7710000   2313.2604     -50.354733     -14324615       0.26068144     6888.4943     -14317726       1345.0495      1345.0495      1345.0495      1327.4752      2672.5248      1327.4752      2672.5248      1327.4752      2672.5248      2.4334073e+09  0.25           2685000        0              0              0              0
Averages over the last 751 of 1501 rows, steps 7860000 to 8010000:
Temp Press PotEng Density KinEng TotEng Lx Ly Lz Xlo Xhi Ylo Yhi Zlo Zhi Volume Dt
314.958 0.993911 -1.50295e+07 0.285852 937.891 -1.50286e+07 1304.39 1304.39 1304.39 1347.8 2652.2 1347.8 2652.2 1347.8 2652.2 2.21943e+09 0.25
Loop time of 35.6187 on 4 procs for 300000 steps with 1000 atoms

# run_style
run_style verlet

# write restart
write_restart ./pgnpmf/2080/equpmf7.res
System init for write_restart ...
Generated 0 of 1 mixed pair_coeff terms from geometric mixing rule
