LAMMPS (23 Jun 2022 - Update 1)
# Read restart
read_restart ./pgnpmf/2080/equpmf57.res
Reading restart file ...
  restart file = 23 Jun 2022, LAMMPS = 23 Jun 2022
  restoring atom style atomic from restart
  orthogonal box = (1639.3528 1639.3528 1639.3528) to (2360.6472 2360.6472 2360.6472)
  restoring pair style table from restart
  1000 atoms
  read_restart CPU = 0.011 seconds

# Settings

pair_style table spline 9941

pair_coeff 1 1 ./pgnpmf/N20.txt DE_GNP 75.6
pair_coeff 2 2 ./pgnpmf/N100.txt DE_GNP 115.92
pair_coeff 1 2 ./pgnpmf/mixed_potential.txt DE_GNP 95.66

#Neigh_list Calc Frequency

neigh_modify delay 0 every 1 check yes

# Saving Frequency (50 frames)

variable ts_save equal 5000

# Dump
#dump_modify 1 first no sort id
dump 2 all cfg 50000 ./pgnpmf/2080/equilibration/trajectory/dumpgen.tens_*.cfg mass type xs ys zs fx fy fz
dump_modify 2 element N20 N100

# thermo_style
thermo_style custom step temp press pe density ke etotal lx ly lz xlo xhi ylo yhi zlo zhi vol dt time cpu tpcpu spcpu cpuremain

# run info
timestep 0.25
thermo 200

# fix

fix 1 all momentum 1000 linear 1 1 1 angular
variable T equal 300
fix 2 all nvt temp 300 370000 100.0

run 100000
Generated 0 of 1 mixed pair_coeff terms from geometric mixing rule
Unused restart file global fix info:
  fix style: npt, fix ID: 5
  update every 1 steps, delay 0 steps, check yes
Step          Temp          Press          PotEng        Density         KinEng         TotEng           Lx             Ly             Lz            Xlo            Xhi            Ylo            Yhi            Zlo            Zhi           Volume           Dt            Time           CPU           T/CPU          S/CPU         CPULeft
58010000   296.27683      1.2486642     -50467009       1.6903908      882.26181     -50466126       721.29448      721.29448      721.29448      1639.3528      2360.6472      1639.3528      2360.6472      1639.3528      2360.6472      3.7526479e+08  0.25           15260000       0              0              0              0
Averages over the last 251 of 501 rows, steps 58060000 to 58110000:
Temp Press PotEng Density KinEng TotEng Lx Ly Lz Xlo Xhi Ylo Yhi Zlo Zhi Volume Dt
276168 1509.29 -4.99298e+07 1.69039 822381 -4.91074e+07 721.294 721.294 721.294 1639.35 2360.65 1639.35 2360.65 1639.35 2360.65 3.75265e+08 0.25
Loop time of 18.0875 on 4 procs for 100000 steps with 1000 atoms

unfix 2

fix 3 all nvt temp 370000 370000 $(100.0*dt) #iso 1.0 1.0 $(1000.0*dt)
fix 3 all nvt temp 370000 370000 25

run 500000
Generated 0 of 1 mixed pair_coeff terms from geometric mixing rule
Step          Temp          Press          PotEng        Density         KinEng         TotEng           Lx             Ly             Lz            Xlo            Xhi            Ylo            Yhi            Zlo            Zhi           Volume           Dt            Time           CPU           T/CPU          S/CPU         CPULeft
58110000   372474.59      2356.5381     -49481869       1.6903908      1109165.7     -48372703       721.29448      721.29448      721.29448      1639.3528      2360.6472      1639.3528      2360.6472      1639.3528      2360.6472      3.7526479e+08  0.25           15285000       0              0              0              0
Averages over the last 1251 of 2501 rows, steps 58360000 to 58610000:
Temp Press PotEng Density KinEng TotEng Lx Ly Lz Xlo Xhi Ylo Yhi Zlo Zhi Volume Dt
369832 1980.98 -4.94426e+07 1.69039 1.1013e+06 -4.83413e+07 721.294 721.294 721.294 1639.35 2360.65 1639.35 2360.65 1639.35 2360.65 3.75265e+08 0.25
Loop time of 91.7394 on 4 procs for 500000 steps with 1000 atoms

unfix 3

fix 4 all nvt temp 370000 300 100.0

run 100000
Generated 0 of 1 mixed pair_coeff terms from geometric mixing rule
Step          Temp          Press          PotEng        Density         KinEng         TotEng           Lx             Ly             Lz            Xlo            Xhi            Ylo            Yhi            Zlo            Zhi           Volume           Dt            Time           CPU           T/CPU          S/CPU         CPULeft
58610000   365407.12      1877.4302     -49593192       1.6903908      1088120       -48505072       721.29448      721.29448      721.29448      1639.3528      2360.6472      1639.3528      2360.6472      1639.3528      2360.6472      3.7526479e+08  0.25           15410000       0              0              0              0
Averages over the last 251 of 501 rows, steps 58660000 to 58710000:
Temp Press PotEng Density KinEng TotEng Lx Ly Lz Xlo Xhi Ylo Yhi Zlo Zhi Volume Dt
93680.6 483.056 -5.02191e+07 1.69039 278965 -4.99402e+07 721.294 721.294 721.294 1639.35 2360.65 1639.35 2360.65 1639.35 2360.65 3.75265e+08 0.25
Loop time of 18.2889 on 4 procs for 100000 steps with 1000 atoms

unfix 4

fix 5 all npt temp 300 300 $(100.0*dt) iso 1.0 1.0 $(1000.0*dt)
fix 5 all npt temp 300 300 25 iso 1.0 1.0 $(1000.0*dt)
fix 5 all npt temp 300 300 25 iso 1.0 1.0 250

run 300000
Generated 0 of 1 mixed pair_coeff terms from geometric mixing rule
Step          Temp          Press          PotEng        Density         KinEng         TotEng           Lx             Ly             Lz            Xlo            Xhi            Ylo            Yhi            Zlo            Zhi           Volume           Dt            Time           CPU           T/CPU          S/CPU         CPULeft
58710000   2362.9465      48.009907     -50389830       1.6903908      7036.4513     -50382794       721.29448      721.29448      721.29448      1639.3528      2360.6472      1639.3528      2360.6472      1639.3528      2360.6472      3.7526479e+08  0.25           15435000       0              0              0              0
Averages over the last 751 of 1501 rows, steps 58860000 to 59010000:
Temp Press PotEng Density KinEng TotEng Lx Ly Lz Xlo Xhi Ylo Yhi Zlo Zhi Volume Dt
301.647 1.00093 -5.05098e+07 1.69278 898.253 -5.05089e+07 720.955 720.955 720.955 1639.52 2360.48 1639.52 2360.48 1639.52 2360.48 3.74735e+08 0.25
Loop time of 63.7843 on 4 procs for 300000 steps with 1000 atoms

# run_style
run_style verlet

# write restart
write_restart ./pgnpmf/2080/equpmf58.res
System init for write_restart ...
Generated 0 of 1 mixed pair_coeff terms from geometric mixing rule
