LAMMPS (23 Jun 2022 - Update 1)
# Read restart
read_restart ./pgnpmf/2080/equpmf39.res
Reading restart file ...
  restart file = 23 Jun 2022, LAMMPS = 23 Jun 2022
  restoring atom style atomic from restart
  orthogonal box = (1638.1139 1638.1139 1638.1139) to (2361.8861 2361.8861 2361.8861)
  restoring pair style table from restart
  1000 atoms
  read_restart CPU = 0.014 seconds

# Settings

pair_style table spline 9941

pair_coeff 1 1 ./pgnpmf/N20.txt DE_GNP 75.6
pair_coeff 2 2 ./pgnpmf/N100.txt DE_GNP 115.92
pair_coeff 1 2 ./pgnpmf/mixed_potential.txt DE_GNP 95.66

#Neigh_list Calc Frequency

neigh_modify delay 0 every 1 check yes

# Saving Frequency (50 frames)

variable ts_save equal 5000

# Dump
#dump_modify 1 first no sort id
dump 2 all cfg 50000 ./pgnpmf/2080/equilibration/trajectory/dumpgen.tens_*.cfg mass type xs ys zs fx fy fz
dump_modify 2 element N20 N100

# thermo_style
thermo_style custom step temp press pe density ke etotal lx ly lz xlo xhi ylo yhi zlo zhi vol dt time cpu tpcpu spcpu cpuremain

# run info
timestep 0.25
thermo 200

# fix

fix 1 all momentum 1000 linear 1 1 1 angular
variable T equal 300
fix 2 all nvt temp 300 370000 100.0

run 100000
Generated 0 of 1 mixed pair_coeff terms from geometric mixing rule
Unused restart file global fix info:
  fix style: npt, fix ID: 5
  update every 1 steps, delay 0 steps, check yes
Step          Temp          Press          PotEng        Density         KinEng         TotEng           Lx             Ly             Lz            Xlo            Xhi            Ylo            Yhi            Zlo            Zhi           Volume           Dt            Time           CPU           T/CPU          S/CPU         CPULeft
40010000   303.4946       1.0875755     -50050471       1.6730893      903.75509     -50049568       723.77226      723.77226      723.77226      1638.1139      2361.8861      1638.1139      2361.8861      1638.1139      2361.8861      3.7914541e+08  0.25           10760000       0              0              0              0
Averages over the last 251 of 501 rows, steps 40060000 to 40110000:
Temp Press PotEng Density KinEng TotEng Lx Ly Lz Xlo Xhi Ylo Yhi Zlo Zhi Volume Dt
276916 1384.59 -4.94816e+07 1.67309 824607 -4.8657e+07 723.772 723.772 723.772 1638.11 2361.89 1638.11 2361.89 1638.11 2361.89 3.79145e+08 0.25
Loop time of 18.739 on 4 procs for 100000 steps with 1000 atoms

unfix 2

fix 3 all nvt temp 370000 370000 $(100.0*dt) #iso 1.0 1.0 $(1000.0*dt)
fix 3 all nvt temp 370000 370000 25

run 500000
Generated 0 of 1 mixed pair_coeff terms from geometric mixing rule
Step          Temp          Press          PotEng        Density         KinEng         TotEng           Lx             Ly             Lz            Xlo            Xhi            Ylo            Yhi            Zlo            Zhi           Volume           Dt            Time           CPU           T/CPU          S/CPU         CPULeft
40110000   377014.06      1993.6544     -49160942       1.6730893      1122683.5     -48038258       723.77226      723.77226      723.77226      1638.1139      2361.8861      1638.1139      2361.8861      1638.1139      2361.8861      3.7914541e+08  0.25           10785000       0              0              0              0
Averages over the last 1251 of 2501 rows, steps 40360000 to 40610000:
Temp Press PotEng Density KinEng TotEng Lx Ly Lz Xlo Xhi Ylo Yhi Zlo Zhi Volume Dt
370029 1795.88 -4.92e+07 1.67309 1.10188e+06 -4.80981e+07 723.772 723.772 723.772 1638.11 2361.89 1638.11 2361.89 1638.11 2361.89 3.79145e+08 0.25
Loop time of 95.9541 on 4 procs for 500000 steps with 1000 atoms

unfix 3

fix 4 all nvt temp 370000 300 100.0

run 100000
Generated 0 of 1 mixed pair_coeff terms from geometric mixing rule
Step          Temp          Press          PotEng        Density         KinEng         TotEng           Lx             Ly             Lz            Xlo            Xhi            Ylo            Yhi            Zlo            Zhi           Volume           Dt            Time           CPU           T/CPU          S/CPU         CPULeft
40610000   364572.26      1741.9942     -49210340       1.6730893      1085633.9     -48124706       723.77226      723.77226      723.77226      1638.1139      2361.8861      1638.1139      2361.8861      1638.1139      2361.8861      3.7914541e+08  0.25           10910000       0              0              0              0
Averages over the last 251 of 501 rows, steps 40660000 to 40710000:
Temp Press PotEng Density KinEng TotEng Lx Ly Lz Xlo Xhi Ylo Yhi Zlo Zhi Volume Dt
93761.6 325.521 -5.00167e+07 1.67309 279206 -4.97375e+07 723.772 723.772 723.772 1638.11 2361.89 1638.11 2361.89 1638.11 2361.89 3.79145e+08 0.25
Loop time of 19.269 on 4 procs for 100000 steps with 1000 atoms

unfix 4

fix 5 all npt temp 300 300 $(100.0*dt) iso 1.0 1.0 $(1000.0*dt)
fix 5 all npt temp 300 300 25 iso 1.0 1.0 $(1000.0*dt)
fix 5 all npt temp 300 300 25 iso 1.0 1.0 250

run 300000
Generated 0 of 1 mixed pair_coeff terms from geometric mixing rule
Step          Temp          Press          PotEng        Density         KinEng         TotEng           Lx             Ly             Lz            Xlo            Xhi            Ylo            Yhi            Zlo            Zhi           Volume           Dt            Time           CPU           T/CPU          S/CPU         CPULeft
40710000   2357.8212     -119.35596     -50223345       1.6730893      7021.1888     -50216324       723.77226      723.77226      723.77226      1638.1139      2361.8861      1638.1139      2361.8861      1638.1139      2361.8861      3.7914541e+08  0.25           10935000       0              0              0              0
Averages over the last 751 of 1501 rows, steps 40860000 to 41010000:
Temp Press PotEng Density KinEng TotEng Lx Ly Lz Xlo Xhi Ylo Yhi Zlo Zhi Volume Dt
301.89 1.03327 -5.04446e+07 1.68214 898.976 -5.04437e+07 722.472 722.472 722.472 1638.76 2361.24 1638.76 2361.24 1638.76 2361.24 3.77106e+08 0.25
Loop time of 64.9888 on 4 procs for 300000 steps with 1000 atoms

# run_style
run_style verlet

# write restart
write_restart ./pgnpmf/2080/equpmf40.res
System init for write_restart ...
Generated 0 of 1 mixed pair_coeff terms from geometric mixing rule
