LAMMPS (23 Jun 2022 - Update 1)
# Read restart
read_restart ./pgnpmf/2080/equpmf65.res
Reading restart file ...
  restart file = 23 Jun 2022, LAMMPS = 23 Jun 2022
  restoring atom style atomic from restart
  orthogonal box = (1639.6455 1639.6455 1639.6455) to (2360.3545 2360.3545 2360.3545)
  restoring pair style table from restart
  1000 atoms
  read_restart CPU = 0.011 seconds

# Settings

pair_style table spline 9941

pair_coeff 1 1 ./pgnpmf/N20.txt DE_GNP 75.6
pair_coeff 2 2 ./pgnpmf/N100.txt DE_GNP 115.92
pair_coeff 1 2 ./pgnpmf/mixed_potential.txt DE_GNP 95.66

#Neigh_list Calc Frequency

neigh_modify delay 0 every 1 check yes

# Saving Frequency (50 frames)

variable ts_save equal 5000

# Dump
#dump_modify 1 first no sort id
dump 2 all cfg 50000 ./pgnpmf/2080/equilibration/trajectory/dumpgen.tens_*.cfg mass type xs ys zs fx fy fz
dump_modify 2 element N20 N100

# thermo_style
thermo_style custom step temp press pe density ke etotal lx ly lz xlo xhi ylo yhi zlo zhi vol dt time cpu tpcpu spcpu cpuremain

# run info
timestep 0.25
thermo 200

# fix

fix 1 all momentum 1000 linear 1 1 1 angular
variable T equal 300
fix 2 all nvt temp 300 370000 100.0

run 100000
Generated 0 of 1 mixed pair_coeff terms from geometric mixing rule
Unused restart file global fix info:
  fix style: npt, fix ID: 5
  update every 1 steps, delay 0 steps, check yes
Step          Temp          Press          PotEng        Density         KinEng         TotEng           Lx             Ly             Lz            Xlo            Xhi            Ylo            Yhi            Zlo            Zhi           Volume           Dt            Time           CPU           T/CPU          S/CPU         CPULeft
66010000   301.96373      0.84042748    -50636742       1.6945135      899.19642     -50635843       720.70903      720.70903      720.70903      1639.6455      2360.3545      1639.6455      2360.3545      1639.6455      2360.3545      3.7435177e+08  0.25           17260000       0              0              0              0
Averages over the last 251 of 501 rows, steps 66060000 to 66110000:
Temp Press PotEng Density KinEng TotEng Lx Ly Lz Xlo Xhi Ylo Yhi Zlo Zhi Volume Dt
276781 1638.27 -4.99163e+07 1.69451 824205 -4.9092e+07 720.709 720.709 720.709 1639.65 2360.35 1639.65 2360.35 1639.65 2360.35 3.74352e+08 0.25
Loop time of 18.7997 on 4 procs for 100000 steps with 1000 atoms

unfix 2

fix 3 all nvt temp 370000 370000 $(100.0*dt) #iso 1.0 1.0 $(1000.0*dt)
fix 3 all nvt temp 370000 370000 25

run 500000
Generated 0 of 1 mixed pair_coeff terms from geometric mixing rule
Step          Temp          Press          PotEng        Density         KinEng         TotEng           Lx             Ly             Lz            Xlo            Xhi            Ylo            Yhi            Zlo            Zhi           Volume           Dt            Time           CPU           T/CPU          S/CPU         CPULeft
66110000   367727.92      2368.6521     -49550182       1.6945135      1095031       -48455151       720.70903      720.70903      720.70903      1639.6455      2360.3545      1639.6455      2360.3545      1639.6455      2360.3545      3.7435177e+08  0.25           17285000       0              0              0              0
Averages over the last 1251 of 2501 rows, steps 66360000 to 66610000:
Temp Press PotEng Density KinEng TotEng Lx Ly Lz Xlo Xhi Ylo Yhi Zlo Zhi Volume Dt
369976 2048.99 -4.95737e+07 1.69451 1.10173e+06 -4.84719e+07 720.709 720.709 720.709 1639.65 2360.35 1639.65 2360.35 1639.65 2360.35 3.74352e+08 0.25
Loop time of 93.8224 on 4 procs for 500000 steps with 1000 atoms

unfix 3

fix 4 all nvt temp 370000 300 100.0

run 100000
Generated 0 of 1 mixed pair_coeff terms from geometric mixing rule
Step          Temp          Press          PotEng        Density         KinEng         TotEng           Lx             Ly             Lz            Xlo            Xhi            Ylo            Yhi            Zlo            Zhi           Volume           Dt            Time           CPU           T/CPU          S/CPU         CPULeft
66610000   370690.06      1927.4337     -49661799       1.6945135      1103851.7     -48557947       720.70903      720.70903      720.70903      1639.6455      2360.3545      1639.6455      2360.3545      1639.6455      2360.3545      3.7435177e+08  0.25           17410000       0              0              0              0
Averages over the last 251 of 501 rows, steps 66660000 to 66710000:
Temp Press PotEng Density KinEng TotEng Lx Ly Lz Xlo Xhi Ylo Yhi Zlo Zhi Volume Dt
93631.3 632.593 -5.0249e+07 1.69451 278818 -4.99702e+07 720.709 720.709 720.709 1639.65 2360.35 1639.65 2360.35 1639.65 2360.35 3.74352e+08 0.25
Loop time of 19.7913 on 4 procs for 100000 steps with 1000 atoms

unfix 4

fix 5 all npt temp 300 300 $(100.0*dt) iso 1.0 1.0 $(1000.0*dt)
fix 5 all npt temp 300 300 25 iso 1.0 1.0 $(1000.0*dt)
fix 5 all npt temp 300 300 25 iso 1.0 1.0 250

run 300000
Generated 0 of 1 mixed pair_coeff terms from geometric mixing rule
Step          Temp          Press          PotEng        Density         KinEng         TotEng           Lx             Ly             Lz            Xlo            Xhi            Ylo            Yhi            Zlo            Zhi           Volume           Dt            Time           CPU           T/CPU          S/CPU         CPULeft
66710000   2381.2361      180.34186     -50463500       1.6945135      7090.9144     -50456409       720.70903      720.70903      720.70903      1639.6455      2360.3545      1639.6455      2360.3545      1639.6455      2360.3545      3.7435177e+08  0.25           17435000       0              0              0              0
Averages over the last 751 of 1501 rows, steps 66860000 to 67010000:
Temp Press PotEng Density KinEng TotEng Lx Ly Lz Xlo Xhi Ylo Yhi Zlo Zhi Volume Dt
300.797 1.08239 -5.05483e+07 1.69221 895.723 -5.05474e+07 721.036 721.036 721.036 1639.48 2360.52 1639.48 2360.52 1639.48 2360.52 3.74861e+08 0.25
Loop time of 69.2019 on 4 procs for 300000 steps with 1000 atoms

# run_style
run_style verlet

# write restart
write_restart ./pgnpmf/2080/equpmf66.res
System init for write_restart ...
Generated 0 of 1 mixed pair_coeff terms from geometric mixing rule
