LAMMPS (23 Jun 2022 - Update 1)
# Read restart
read_restart ./pgnpmf/2080/equpmf12.res
Reading restart file ...
  restart file = 23 Jun 2022, LAMMPS = 23 Jun 2022
  restoring atom style atomic from restart
  orthogonal box = (1426.1954 1426.1954 1426.1954) to (2573.8046 2573.8046 2573.8046)
  restoring pair style table from restart
  1000 atoms
  read_restart CPU = 0.014 seconds

# Settings

pair_style table spline 9941

pair_coeff 1 1 ./pgnpmf/N20.txt DE_GNP 75.6
pair_coeff 2 2 ./pgnpmf/N100.txt DE_GNP 115.92
pair_coeff 1 2 ./pgnpmf/mixed_potential.txt DE_GNP 95.66

#Neigh_list Calc Frequency

neigh_modify delay 0 every 1 check yes

# Saving Frequency (50 frames)

variable ts_save equal 5000

# Dump
#dump_modify 1 first no sort id
dump 2 all cfg 50000 ./pgnpmf/2080/equilibration/trajectory/dumpgen.tens_*.cfg mass type xs ys zs fx fy fz
dump_modify 2 element N20 N100

# thermo_style
thermo_style custom step temp press pe density ke etotal lx ly lz xlo xhi ylo yhi zlo zhi vol dt time cpu tpcpu spcpu cpuremain

# run info
timestep 0.25
thermo 200

# fix

fix 1 all momentum 1000 linear 1 1 1 angular
variable T equal 300
fix 2 all nvt temp 300 370000 100.0

run 100000
Generated 0 of 1 mixed pair_coeff terms from geometric mixing rule
Unused restart file global fix info:
  fix style: npt, fix ID: 5
  update every 1 steps, delay 0 steps, check yes
Step          Temp          Press          PotEng        Density         KinEng         TotEng           Lx             Ly             Lz            Xlo            Xhi            Ylo            Yhi            Zlo            Zhi           Volume           Dt            Time           CPU           T/CPU          S/CPU         CPULeft
13010000   309.7874       1.1056436     -30532375       0.41970384     922.49397     -30531453       1147.6091      1147.6091      1147.6091      1426.1954      2573.8046      1426.1954      2573.8046      1426.1954      2573.8046      1.5114089e+09  0.25           4010000        0              0              0              0
Averages over the last 251 of 501 rows, steps 13060000 to 13110000:
Temp Press PotEng Density KinEng TotEng Lx Ly Lz Xlo Xhi Ylo Yhi Zlo Zhi Volume Dt
277569 51.5731 -3.07372e+07 0.419704 826553 -2.99106e+07 1147.61 1147.61 1147.61 1426.2 2573.8 1426.2 2573.8 1426.2 2573.8 1.51141e+09 0.25
Loop time of 13.399 on 4 procs for 100000 steps with 1000 atoms

unfix 2

fix 3 all nvt temp 370000 370000 $(100.0*dt) #iso 1.0 1.0 $(1000.0*dt)
fix 3 all nvt temp 370000 370000 25

run 500000
Generated 0 of 1 mixed pair_coeff terms from geometric mixing rule
Step          Temp          Press          PotEng        Density         KinEng         TotEng           Lx             Ly             Lz            Xlo            Xhi            Ylo            Yhi            Zlo            Zhi           Volume           Dt            Time           CPU           T/CPU          S/CPU         CPULeft
13110000   371932.28      41.948658     -30527632       0.41970384     1107550.8     -29420082       1147.6091      1147.6091      1147.6091      1426.1954      2573.8046      1426.1954      2573.8046      1426.1954      2573.8046      1.5114089e+09  0.25           4035000        0              0              0              0
Averages over the last 1251 of 2501 rows, steps 13360000 to 13610000:
Temp Press PotEng Density KinEng TotEng Lx Ly Lz Xlo Xhi Ylo Yhi Zlo Zhi Volume Dt
369918 -0.112582 -2.98227e+07 0.419704 1.10155e+06 -2.87211e+07 1147.61 1147.61 1147.61 1426.2 2573.8 1426.2 2573.8 1426.2 2573.8 1.51141e+09 0.25
Loop time of 67.34 on 4 procs for 500000 steps with 1000 atoms

unfix 3

fix 4 all nvt temp 370000 300 100.0

run 100000
Generated 0 of 1 mixed pair_coeff terms from geometric mixing rule
Step          Temp          Press          PotEng        Density         KinEng         TotEng           Lx             Ly             Lz            Xlo            Xhi            Ylo            Yhi            Zlo            Zhi           Volume           Dt            Time           CPU           T/CPU          S/CPU         CPULeft
13610000   360179.6       4.5907687     -30082116       0.41970384     1072553.3     -29009563       1147.6091      1147.6091      1147.6091      1426.1954      2573.8046      1426.1954      2573.8046      1426.1954      2573.8046      1.5114089e+09  0.25           4160000        0              0              0              0
Averages over the last 251 of 501 rows, steps 13660000 to 13710000:
Temp Press PotEng Density KinEng TotEng Lx Ly Lz Xlo Xhi Ylo Yhi Zlo Zhi Volume Dt
93751.9 -96.6338 -3.10063e+07 0.419704 279177 -3.07271e+07 1147.61 1147.61 1147.61 1426.2 2573.8 1426.2 2573.8 1426.2 2573.8 1.51141e+09 0.25
Loop time of 13.3811 on 4 procs for 100000 steps with 1000 atoms

unfix 4

fix 5 all npt temp 300 300 $(100.0*dt) iso 1.0 1.0 $(1000.0*dt)
fix 5 all npt temp 300 300 25 iso 1.0 1.0 $(1000.0*dt)
fix 5 all npt temp 300 300 25 iso 1.0 1.0 250

run 300000
Generated 0 of 1 mixed pair_coeff terms from geometric mixing rule
Step          Temp          Press          PotEng        Density         KinEng         TotEng           Lx             Ly             Lz            Xlo            Xhi            Ylo            Yhi            Zlo            Zhi           Volume           Dt            Time           CPU           T/CPU          S/CPU         CPULeft
13710000   2363.2814     -129.75128     -31420456       0.41970384     7037.4484     -31413418       1147.6091      1147.6091      1147.6091      1426.1954      2573.8046      1426.1954      2573.8046      1426.1954      2573.8046      1.5114089e+09  0.25           4185000        0              0              0              0
Averages over the last 751 of 1501 rows, steps 13860000 to 14010000:
Temp Press PotEng Density KinEng TotEng Lx Ly Lz Xlo Xhi Ylo Yhi Zlo Zhi Volume Dt
311.325 0.984101 -3.19276e+07 0.439566 927.072 -3.19267e+07 1130.06 1130.06 1130.06 1434.97 2565.03 1434.97 2565.03 1434.97 2565.03 1.44314e+09 0.25
Loop time of 50.0016 on 4 procs for 300000 steps with 1000 atoms

# run_style
run_style verlet

# write restart
write_restart ./pgnpmf/2080/equpmf13.res
System init for write_restart ...
Generated 0 of 1 mixed pair_coeff terms from geometric mixing rule
