LAMMPS (23 Jun 2022 - Update 1)
# Read restart
read_restart ./pgnpmf/100/equpmf30.res
Reading restart file ...
  restart file = 23 Jun 2022, LAMMPS = 23 Jun 2022
  restoring atom style atomic from restart
  orthogonal box = (1747.6772 1747.6772 1747.6772) to (2252.3228 2252.3228 2252.3228)
  restoring pair style table from restart
  1000 atoms
  read_restart CPU = 0.009 seconds

# Settings

pair_style table spline 9941

pair_coeff 1 1 ./pgnpmf/N20.txt DE_GNP 75.6
pair_coeff 2 2 ./pgnpmf/N100.txt DE_GNP 115.92
pair_coeff 1 2 ./pgnpmf/mixed_potential.txt DE_GNP 95.66

#Neigh_list Calc Frequency

neigh_modify delay 0 every 1 check yes

# Saving Frequency (50 frames)

variable ts_save equal 5000

# Dump
#dump_modify 1 first no sort id
dump 2 all cfg 50000 ./pgnpmf/100/equilibration/trajectory/dumpgen.tens_*.cfg mass type xs ys zs fx fy fz
dump_modify 2 element N20 N100

# thermo_style
thermo_style custom step temp press pe density ke etotal lx ly lz xlo xhi ylo yhi zlo zhi vol dt time cpu tpcpu spcpu cpuremain

# run info
timestep 0.1
thermo 200

# fix

fix 1 all momentum 1000 linear 1 1 1 angular
variable T equal 300
fix 2 all nvt temp 300 370000 100.0

run 100000
Generated 0 of 1 mixed pair_coeff terms from geometric mixing rule
Unused restart file global fix info:
  fix style: npt, fix ID: 5
  update every 1 steps, delay 0 steps, check yes
Step          Temp          Press          PotEng        Density         KinEng         TotEng           Lx             Ly             Lz            Xlo            Xhi            Ylo            Yhi            Zlo            Zhi           Volume           Dt            Time           CPU           T/CPU          S/CPU         CPULeft
21410000   303.85118      1.3642571     -5257521        2.8664949      904.81693     -5256616.2      504.64553      504.64553      504.64553      1747.6772      2252.3228      1747.6772      2252.3228      1747.6772      2252.3228      1.2851662e+08  0.1            2790000        0              0              0              0
Averages over the last 251 of 501 rows, steps 21460000 to 21510000:
Temp Press PotEng Density KinEng TotEng Lx Ly Lz Xlo Xhi Ylo Yhi Zlo Zhi Volume Dt
277673 2621.58 -4.85242e+06 2.86649 826864 -4.02556e+06 504.646 504.646 504.646 1747.68 2252.32 1747.68 2252.32 1747.68 2252.32 1.28517e+08 0.1
Loop time of 9.3157 on 4 procs for 100000 steps with 1000 atoms

unfix 2

fix 3 all nvt temp 370000 370000 $(100.0*dt) #iso 1.0 1.0 $(1000.0*dt)
fix 3 all nvt temp 370000 370000 10

run 200000
Generated 0 of 1 mixed pair_coeff terms from geometric mixing rule
Step          Temp          Press          PotEng        Density         KinEng         TotEng           Lx             Ly             Lz            Xlo            Xhi            Ylo            Yhi            Zlo            Zhi           Volume           Dt            Time           CPU           T/CPU          S/CPU         CPULeft
21510000   375202.73      4074.5057     -4615488.8      2.8664949      1117289.7     -3498199.2      504.64553      504.64553      504.64553      1747.6772      2252.3228      1747.6772      2252.3228      1747.6772      2252.3228      1.2851662e+08  0.1            2800000        0              0              0              0
Averages over the last 501 of 1001 rows, steps 21610000 to 21710000:
Temp Press PotEng Density KinEng TotEng Lx Ly Lz Xlo Xhi Ylo Yhi Zlo Zhi Volume Dt
370135 4807.42 -4.46673e+06 2.86649 1.1022e+06 -3.36453e+06 504.646 504.646 504.646 1747.68 2252.32 1747.68 2252.32 1747.68 2252.32 1.28517e+08 0.1
Loop time of 18.4858 on 4 procs for 200000 steps with 1000 atoms

unfix 3

fix 4 all nvt temp 370000 300 100.0

run 100000
Generated 0 of 1 mixed pair_coeff terms from geometric mixing rule
Step          Temp          Press          PotEng        Density         KinEng         TotEng           Lx             Ly             Lz            Xlo            Xhi            Ylo            Yhi            Zlo            Zhi           Volume           Dt            Time           CPU           T/CPU          S/CPU         CPULeft
21710000   359801.61      4907.8973     -4452302.8      2.8664949      1071427.8     -3380875        504.64553      504.64553      504.64553      1747.6772      2252.3228      1747.6772      2252.3228      1747.6772      2252.3228      1.2851662e+08  0.1            2820000        0              0              0              0
Averages over the last 251 of 501 rows, steps 21760000 to 21810000:
Temp Press PotEng Density KinEng TotEng Lx Ly Lz Xlo Xhi Ylo Yhi Zlo Zhi Volume Dt
96398.7 1891.13 -4.97529e+06 2.86649 287059 -4.68824e+06 504.646 504.646 504.646 1747.68 2252.32 1747.68 2252.32 1747.68 2252.32 1.28517e+08 0.1
Loop time of 9.20259 on 4 procs for 100000 steps with 1000 atoms

unfix 4

fix 5 all npt temp 300 300 $(100.0*dt) iso 1.0 1.0 $(1000.0*dt)
fix 5 all npt temp 300 300 10 iso 1.0 1.0 $(1000.0*dt)
fix 5 all npt temp 300 300 10 iso 1.0 1.0 100

run 300000
Generated 0 of 1 mixed pair_coeff terms from geometric mixing rule
Step          Temp          Press          PotEng        Density         KinEng         TotEng           Lx             Ly             Lz            Xlo            Xhi            Ylo            Yhi            Zlo            Zhi           Volume           Dt            Time           CPU           T/CPU          S/CPU         CPULeft
21810000   5228.6075      767.5888      -5146076.7      2.8664949      15569.9       -5130506.8      504.64553      504.64553      504.64553      1747.6772      2252.3228      1747.6772      2252.3228      1747.6772      2252.3228      1.2851662e+08  0.1            2830000        0              0              0              0
Averages over the last 751 of 1501 rows, steps 21960000 to 22110000:
Temp Press PotEng Density KinEng TotEng Lx Ly Lz Xlo Xhi Ylo Yhi Zlo Zhi Volume Dt
304.54 1.15206 -5.26727e+06 2.86726 906.869 -5.26636e+06 504.601 504.601 504.601 1747.7 2252.3 1747.7 2252.3 1747.7 2252.3 1.28482e+08 0.1
Loop time of 32.852 on 4 procs for 300000 steps with 1000 atoms

# run_style
run_style verlet

# write restart
write_restart ./pgnpmf/100/equpmf31.res
System init for write_restart ...
Generated 0 of 1 mixed pair_coeff terms from geometric mixing rule
