LAMMPS (23 Jun 2022 - Update 1)
# Read restart
read_restart ./pgnpmf/100/equpmf53.res
Reading restart file ...
  restart file = 23 Jun 2022, LAMMPS = 23 Jun 2022
  restoring atom style atomic from restart
  orthogonal box = (1748.0731 1748.0731 1748.0731) to (2251.9269 2251.9269 2251.9269)
  restoring pair style table from restart
  1000 atoms
  read_restart CPU = 0.009 seconds

# Settings

pair_style table spline 9941

pair_coeff 1 1 ./pgnpmf/N20.txt DE_GNP 75.6
pair_coeff 2 2 ./pgnpmf/N100.txt DE_GNP 115.92
pair_coeff 1 2 ./pgnpmf/mixed_potential.txt DE_GNP 95.66

#Neigh_list Calc Frequency

neigh_modify delay 0 every 1 check yes

# Saving Frequency (50 frames)

variable ts_save equal 5000

# Dump
#dump_modify 1 first no sort id
dump 2 all cfg 50000 ./pgnpmf/100/equilibration/trajectory/dumpgen.tens_*.cfg mass type xs ys zs fx fy fz
dump_modify 2 element N20 N100

# thermo_style
thermo_style custom step temp press pe density ke etotal lx ly lz xlo xhi ylo yhi zlo zhi vol dt time cpu tpcpu spcpu cpuremain

# run info
timestep 0.1
thermo 200

# fix

fix 1 all momentum 1000 linear 1 1 1 angular
variable T equal 300
fix 2 all nvt temp 300 370000 100.0

run 100000
Generated 0 of 1 mixed pair_coeff terms from geometric mixing rule
Unused restart file global fix info:
  fix style: npt, fix ID: 5
  update every 1 steps, delay 0 steps, check yes
Step          Temp          Press          PotEng        Density         KinEng         TotEng           Lx             Ly             Lz            Xlo            Xhi            Ylo            Yhi            Zlo            Zhi           Volume           Dt            Time           CPU           T/CPU          S/CPU         CPULeft
37510000   303.34646      9.8930807     -5299975.7      2.8800272      903.31396     -5299072.4      503.8539       503.8539       503.8539       1748.0731      2251.9269      1748.0731      2251.9269      1748.0731      2251.9269      1.2791276e+08  0.1            4400000        0              0              0              0
Averages over the last 251 of 501 rows, steps 37560000 to 37610000:
Temp Press PotEng Density KinEng TotEng Lx Ly Lz Xlo Xhi Ylo Yhi Zlo Zhi Volume Dt
277593 2837.81 -4.86165e+06 2.88003 826625 -4.03503e+06 503.854 503.854 503.854 1748.07 2251.93 1748.07 2251.93 1748.07 2251.93 1.27913e+08 0.1
Loop time of 9.26392 on 4 procs for 100000 steps with 1000 atoms

unfix 2

fix 3 all nvt temp 370000 370000 $(100.0*dt) #iso 1.0 1.0 $(1000.0*dt)
fix 3 all nvt temp 370000 370000 10

run 200000
Generated 0 of 1 mixed pair_coeff terms from geometric mixing rule
Step          Temp          Press          PotEng        Density         KinEng         TotEng           Lx             Ly             Lz            Xlo            Xhi            Ylo            Yhi            Zlo            Zhi           Volume           Dt            Time           CPU           T/CPU          S/CPU         CPULeft
37610000   368490.01      4399.469      -4605429.2      2.8800272      1097300.3     -3508128.9      503.8539       503.8539       503.8539       1748.0731      2251.9269      1748.0731      2251.9269      1748.0731      2251.9269      1.2791276e+08  0.1            4410000        0              0              0              0
Averages over the last 501 of 1001 rows, steps 37710000 to 37810000:
Temp Press PotEng Density KinEng TotEng Lx Ly Lz Xlo Xhi Ylo Yhi Zlo Zhi Volume Dt
370090 5161.33 -4.43612e+06 2.88003 1.10207e+06 -3.33405e+06 503.854 503.854 503.854 1748.07 2251.93 1748.07 2251.93 1748.07 2251.93 1.27913e+08 0.1
Loop time of 18.7908 on 4 procs for 200000 steps with 1000 atoms

unfix 3

fix 4 all nvt temp 370000 300 100.0

run 100000
Generated 0 of 1 mixed pair_coeff terms from geometric mixing rule
Step          Temp          Press          PotEng        Density         KinEng         TotEng           Lx             Ly             Lz            Xlo            Xhi            Ylo            Yhi            Zlo            Zhi           Volume           Dt            Time           CPU           T/CPU          S/CPU         CPULeft
37810000   354138.23      5009.9101     -4448277.9      2.8800272      1054563.2     -3393714.7      503.8539       503.8539       503.8539       1748.0731      2251.9269      1748.0731      2251.9269      1748.0731      2251.9269      1.2791276e+08  0.1            4430000        0              0              0              0
Averages over the last 251 of 501 rows, steps 37860000 to 37910000:
Temp Press PotEng Density KinEng TotEng Lx Ly Lz Xlo Xhi Ylo Yhi Zlo Zhi Volume Dt
96492.7 1964.78 -4.98916e+06 2.88003 287339 -4.70183e+06 503.854 503.854 503.854 1748.07 2251.93 1748.07 2251.93 1748.07 2251.93 1.27913e+08 0.1
Loop time of 9.43031 on 4 procs for 100000 steps with 1000 atoms

unfix 4

fix 5 all npt temp 300 300 $(100.0*dt) iso 1.0 1.0 $(1000.0*dt)
fix 5 all npt temp 300 300 10 iso 1.0 1.0 $(1000.0*dt)
fix 5 all npt temp 300 300 10 iso 1.0 1.0 100

run 300000
Generated 0 of 1 mixed pair_coeff terms from geometric mixing rule
Step          Temp          Press          PotEng        Density         KinEng         TotEng           Lx             Ly             Lz            Xlo            Xhi            Ylo            Yhi            Zlo            Zhi           Volume           Dt            Time           CPU           T/CPU          S/CPU         CPULeft
37910000   5185.1136      766.90947     -5172035.4      2.8800272      15440.383     -5156595        503.8539       503.8539       503.8539       1748.0731      2251.9269      1748.0731      2251.9269      1748.0731      2251.9269      1.2791276e+08  0.1            4440000        0              0              0              0
Averages over the last 751 of 1501 rows, steps 38060000 to 38210000:
Temp Press PotEng Density KinEng TotEng Lx Ly Lz Xlo Xhi Ylo Yhi Zlo Zhi Volume Dt
304.324 1.33523 -5.2914e+06 2.8788 906.224 -5.29049e+06 503.926 503.926 503.926 1748.04 2251.96 1748.04 2251.96 1748.04 2251.96 1.27968e+08 0.1
Loop time of 33.7485 on 4 procs for 300000 steps with 1000 atoms

# run_style
run_style verlet

# write restart
write_restart ./pgnpmf/100/equpmf54.res
System init for write_restart ...
Generated 0 of 1 mixed pair_coeff terms from geometric mixing rule
