LAMMPS (23 Jun 2022 - Update 1)
# Read restart
read_restart ./pgnpmf/100/equpmf11.res
Reading restart file ...
  restart file = 23 Jun 2022, LAMMPS = 23 Jun 2022
  restoring atom style atomic from restart
  orthogonal box = (1691.7465 1691.7465 1691.7465) to (2308.2535 2308.2535 2308.2535)
  restoring pair style table from restart
  1000 atoms
  read_restart CPU = 0.007 seconds

# Settings

pair_style table spline 9941

pair_coeff 1 1 ./pgnpmf/N20.txt DE_GNP 75.6
pair_coeff 2 2 ./pgnpmf/N100.txt DE_GNP 115.92
pair_coeff 1 2 ./pgnpmf/mixed_potential.txt DE_GNP 95.66

#Neigh_list Calc Frequency

neigh_modify delay 0 every 1 check yes

# Saving Frequency (50 frames)

variable ts_save equal 5000

# Dump
#dump_modify 1 first no sort id
dump 2 all cfg 50000 ./pgnpmf/100/equilibration/trajectory/dumpgen.tens_*.cfg mass type xs ys zs fx fy fz
dump_modify 2 element N20 N100

# thermo_style
thermo_style custom step temp press pe density ke etotal lx ly lz xlo xhi ylo yhi zlo zhi vol dt time cpu tpcpu spcpu cpuremain

# run info
timestep 0.1
thermo 200

# fix

fix 1 all momentum 1000 linear 1 1 1 angular
variable T equal 300
fix 2 all nvt temp 300 370000 100.0

run 100000
Generated 0 of 1 mixed pair_coeff terms from geometric mixing rule
Unused restart file global fix info:
  fix style: npt, fix ID: 5
  update every 1 steps, delay 0 steps, check yes
Step          Temp          Press          PotEng        Density         KinEng         TotEng           Lx             Ly             Lz            Xlo            Xhi            Ylo            Yhi            Zlo            Zhi           Volume           Dt            Time           CPU           T/CPU          S/CPU         CPULeft
8110000   309.98225     -0.085215658   -2829413        1.5721591      923.0742      -2828489.9      616.50696      616.50696      616.50696      1691.7465      2308.2535      1691.7465      2308.2535      1691.7465      2308.2535      2.3432247e+08  0.1            1460000        0              0              0              0
Averages over the last 251 of 501 rows, steps 8160000 to 8210000:
Temp Press PotEng Density KinEng TotEng Lx Ly Lz Xlo Xhi Ylo Yhi Zlo Zhi Volume Dt
276825 355.112 -2.74054e+06 1.57216 824337 -1.9162e+06 616.507 616.507 616.507 1691.75 2308.25 1691.75 2308.25 1691.75 2308.25 2.34322e+08 0.1
Loop time of 8.07271 on 4 procs for 100000 steps with 1000 atoms

unfix 2

fix 3 all nvt temp 370000 370000 $(100.0*dt) #iso 1.0 1.0 $(1000.0*dt)
fix 3 all nvt temp 370000 370000 10

run 200000
Generated 0 of 1 mixed pair_coeff terms from geometric mixing rule
Step          Temp          Press          PotEng        Density         KinEng         TotEng           Lx             Ly             Lz            Xlo            Xhi            Ylo            Yhi            Zlo            Zhi           Volume           Dt            Time           CPU           T/CPU          S/CPU         CPULeft
8210000   380432.72      683.47317     -2697749        1.5721591      1132863.7     -1564885.4      616.50696      616.50696      616.50696      1691.7465      2308.2535      1691.7465      2308.2535      1691.7465      2308.2535      2.3432247e+08  0.1            1470000        0              0              0              0
Averages over the last 501 of 1001 rows, steps 8310000 to 8410000:
Temp Press PotEng Density KinEng TotEng Lx Ly Lz Xlo Xhi Ylo Yhi Zlo Zhi Volume Dt
369754 437.183 -2.631e+06 1.57216 1.10107e+06 -1.52993e+06 616.507 616.507 616.507 1691.75 2308.25 1691.75 2308.25 1691.75 2308.25 2.34322e+08 0.1
Loop time of 16.0312 on 4 procs for 200000 steps with 1000 atoms

unfix 3

fix 4 all nvt temp 370000 300 100.0

run 100000
Generated 0 of 1 mixed pair_coeff terms from geometric mixing rule
Step          Temp          Press          PotEng        Density         KinEng         TotEng           Lx             Ly             Lz            Xlo            Xhi            Ylo            Yhi            Zlo            Zhi           Volume           Dt            Time           CPU           T/CPU          S/CPU         CPULeft
8410000   360102.04      446.67355     -2584129.8      1.5721591      1072322.4     -1511807.5      616.50696      616.50696      616.50696      1691.7465      2308.2535      1691.7465      2308.2535      1691.7465      2308.2535      2.3432247e+08  0.1            1490000        0              0              0              0
Averages over the last 251 of 501 rows, steps 8460000 to 8510000:
Temp Press PotEng Density KinEng TotEng Lx Ly Lz Xlo Xhi Ylo Yhi Zlo Zhi Volume Dt
95256.8 -236.292 -2.70062e+06 1.57216 283659 -2.41696e+06 616.507 616.507 616.507 1691.75 2308.25 1691.75 2308.25 1691.75 2308.25 2.34322e+08 0.1
Loop time of 7.77852 on 4 procs for 100000 steps with 1000 atoms

unfix 4

fix 5 all npt temp 300 300 $(100.0*dt) iso 1.0 1.0 $(1000.0*dt)
fix 5 all npt temp 300 300 10 iso 1.0 1.0 $(1000.0*dt)
fix 5 all npt temp 300 300 10 iso 1.0 1.0 100

run 300000
Generated 0 of 1 mixed pair_coeff terms from geometric mixing rule
Step          Temp          Press          PotEng        Density         KinEng         TotEng           Lx             Ly             Lz            Xlo            Xhi            Ylo            Yhi            Zlo            Zhi           Volume           Dt            Time           CPU           T/CPU          S/CPU         CPULeft
8510000   4545.6099     -469.15651     -2742854.7      1.5721591      13536.05      -2729318.6      616.50696      616.50696      616.50696      1691.7465      2308.2535      1691.7465      2308.2535      1691.7465      2308.2535      2.3432247e+08  0.1            1500000        0              0              0              0
Averages over the last 751 of 1501 rows, steps 8660000 to 8810000:
Temp Press PotEng Density KinEng TotEng Lx Ly Lz Xlo Xhi Ylo Yhi Zlo Zhi Volume Dt
311.872 0.992836 -3.14932e+06 1.77289 928.703 -3.14839e+06 592.315 592.315 592.315 1703.84 2296.16 1703.84 2296.16 1703.84 2296.16 2.07813e+08 0.1
Loop time of 29.6062 on 4 procs for 300000 steps with 1000 atoms

# run_style
run_style verlet

# write restart
write_restart ./pgnpmf/100/equpmf12.res
System init for write_restart ...
Generated 0 of 1 mixed pair_coeff terms from geometric mixing rule
