LAMMPS (23 Jun 2022 - Update 1)
# Read restart
read_restart ./pgnpmf/100/equpmf54.res
Reading restart file ...
  restart file = 23 Jun 2022, LAMMPS = 23 Jun 2022
  restoring atom style atomic from restart
  orthogonal box = (1748.2331 1748.2331 1748.2331) to (2251.7669 2251.7669 2251.7669)
  restoring pair style table from restart
  1000 atoms
  read_restart CPU = 0.007 seconds

# Settings

pair_style table spline 9941

pair_coeff 1 1 ./pgnpmf/N20.txt DE_GNP 75.6
pair_coeff 2 2 ./pgnpmf/N100.txt DE_GNP 115.92
pair_coeff 1 2 ./pgnpmf/mixed_potential.txt DE_GNP 95.66

#Neigh_list Calc Frequency

neigh_modify delay 0 every 1 check yes

# Saving Frequency (50 frames)

variable ts_save equal 5000

# Dump
#dump_modify 1 first no sort id
dump 2 all cfg 50000 ./pgnpmf/100/equilibration/trajectory/dumpgen.tens_*.cfg mass type xs ys zs fx fy fz
dump_modify 2 element N20 N100

# thermo_style
thermo_style custom step temp press pe density ke etotal lx ly lz xlo xhi ylo yhi zlo zhi vol dt time cpu tpcpu spcpu cpuremain

# run info
timestep 0.1
thermo 200

# fix

fix 1 all momentum 1000 linear 1 1 1 angular
variable T equal 300
fix 2 all nvt temp 300 370000 100.0

run 100000
Generated 0 of 1 mixed pair_coeff terms from geometric mixing rule
Unused restart file global fix info:
  fix style: npt, fix ID: 5
  update every 1 steps, delay 0 steps, check yes
Step          Temp          Press          PotEng        Density         KinEng         TotEng           Lx             Ly             Lz            Xlo            Xhi            Ylo            Yhi            Zlo            Zhi           Volume           Dt            Time           CPU           T/CPU          S/CPU         CPULeft
38210000   303.40651      2.8884064     -5311134.6      2.8855247      903.49278     -5310231.1      503.53371      503.53371      503.53371      1748.2331      2251.7669      1748.2331      2251.7669      1748.2331      2251.7669      1.2766906e+08  0.1            4470000        0              0              0              0
Averages over the last 251 of 501 rows, steps 38260000 to 38310000:
Temp Press PotEng Density KinEng TotEng Lx Ly Lz Xlo Xhi Ylo Yhi Zlo Zhi Volume Dt
277586 2705.17 -4.90101e+06 2.88552 826604 -4.0744e+06 503.534 503.534 503.534 1748.23 2251.77 1748.23 2251.77 1748.23 2251.77 1.27669e+08 0.1
Loop time of 9.18268 on 4 procs for 100000 steps with 1000 atoms

unfix 2

fix 3 all nvt temp 370000 370000 $(100.0*dt) #iso 1.0 1.0 $(1000.0*dt)
fix 3 all nvt temp 370000 370000 10

run 200000
Generated 0 of 1 mixed pair_coeff terms from geometric mixing rule
Step          Temp          Press          PotEng        Density         KinEng         TotEng           Lx             Ly             Lz            Xlo            Xhi            Ylo            Yhi            Zlo            Zhi           Volume           Dt            Time           CPU           T/CPU          S/CPU         CPULeft
38310000   370863.37      4361.6735     -4629127        2.8855247      1104367.8     -3524759.2      503.53371      503.53371      503.53371      1748.2331      2251.7669      1748.2331      2251.7669      1748.2331      2251.7669      1.2766906e+08  0.1            4480000        0              0              0              0
Averages over the last 501 of 1001 rows, steps 38410000 to 38510000:
Temp Press PotEng Density KinEng TotEng Lx Ly Lz Xlo Xhi Ylo Yhi Zlo Zhi Volume Dt
370031 5354.68 -4.41141e+06 2.88552 1.10189e+06 -3.30952e+06 503.534 503.534 503.534 1748.23 2251.77 1748.23 2251.77 1748.23 2251.77 1.27669e+08 0.1
Loop time of 18.1189 on 4 procs for 200000 steps with 1000 atoms

unfix 3

fix 4 all nvt temp 370000 300 100.0

run 100000
Generated 0 of 1 mixed pair_coeff terms from geometric mixing rule
Step          Temp          Press          PotEng        Density         KinEng         TotEng           Lx             Ly             Lz            Xlo            Xhi            Ylo            Yhi            Zlo            Zhi           Volume           Dt            Time           CPU           T/CPU          S/CPU         CPULeft
38510000   369652.24      5239.4373     -4424196.3      2.8855247      1100761.2     -3323435        503.53371      503.53371      503.53371      1748.2331      2251.7669      1748.2331      2251.7669      1748.2331      2251.7669      1.2766906e+08  0.1            4500000        0              0              0              0
Averages over the last 251 of 501 rows, steps 38560000 to 38610000:
Temp Press PotEng Density KinEng TotEng Lx Ly Lz Xlo Xhi Ylo Yhi Zlo Zhi Volume Dt
96512.7 2223.29 -4.9681e+06 2.88552 287398 -4.6807e+06 503.534 503.534 503.534 1748.23 2251.77 1748.23 2251.77 1748.23 2251.77 1.27669e+08 0.1
Loop time of 9.10541 on 4 procs for 100000 steps with 1000 atoms

unfix 4

fix 5 all npt temp 300 300 $(100.0*dt) iso 1.0 1.0 $(1000.0*dt)
fix 5 all npt temp 300 300 10 iso 1.0 1.0 $(1000.0*dt)
fix 5 all npt temp 300 300 10 iso 1.0 1.0 100

run 300000
Generated 0 of 1 mixed pair_coeff terms from geometric mixing rule
Step          Temp          Press          PotEng        Density         KinEng         TotEng           Lx             Ly             Lz            Xlo            Xhi            Ylo            Yhi            Zlo            Zhi           Volume           Dt            Time           CPU           T/CPU          S/CPU         CPULeft
38610000   5247.1053      1073.9362     -5151419        2.8855247      15624.984     -5135794        503.53371      503.53371      503.53371      1748.2331      2251.7669      1748.2331      2251.7669      1748.2331      2251.7669      1.2766906e+08  0.1            4510000        0              0              0              0
Averages over the last 751 of 1501 rows, steps 38760000 to 38910000:
Temp Press PotEng Density KinEng TotEng Lx Ly Lz Xlo Xhi Ylo Yhi Zlo Zhi Volume Dt
304.402 0.895521 -5.27547e+06 2.87032 906.457 -5.27457e+06 504.421 504.421 504.421 1747.79 2252.21 1747.79 2252.21 1747.79 2252.21 1.28346e+08 0.1
Loop time of 32.3903 on 4 procs for 300000 steps with 1000 atoms

# run_style
run_style verlet

# write restart
write_restart ./pgnpmf/100/equpmf55.res
System init for write_restart ...
Generated 0 of 1 mixed pair_coeff terms from geometric mixing rule
