LAMMPS (23 Jun 2022 - Update 1)
# Read restart
read_restart ./pgnpmf/100/equpmf21.res
Reading restart file ...
  restart file = 23 Jun 2022, LAMMPS = 23 Jun 2022
  restoring atom style atomic from restart
  orthogonal box = (1747.6664 1747.6664 1747.6664) to (2252.3336 2252.3336 2252.3336)
  restoring pair style table from restart
  1000 atoms
  read_restart CPU = 0.009 seconds

# Settings

pair_style table spline 9941

pair_coeff 1 1 ./pgnpmf/N20.txt DE_GNP 75.6
pair_coeff 2 2 ./pgnpmf/N100.txt DE_GNP 115.92
pair_coeff 1 2 ./pgnpmf/mixed_potential.txt DE_GNP 95.66

#Neigh_list Calc Frequency

neigh_modify delay 0 every 1 check yes

# Saving Frequency (50 frames)

variable ts_save equal 5000

# Dump
#dump_modify 1 first no sort id
dump 2 all cfg 50000 ./pgnpmf/100/equilibration/trajectory/dumpgen.tens_*.cfg mass type xs ys zs fx fy fz
dump_modify 2 element N20 N100

# thermo_style
thermo_style custom step temp press pe density ke etotal lx ly lz xlo xhi ylo yhi zlo zhi vol dt time cpu tpcpu spcpu cpuremain

# run info
timestep 0.1
thermo 200

# fix

fix 1 all momentum 1000 linear 1 1 1 angular
variable T equal 300
fix 2 all nvt temp 300 370000 100.0

run 100000
Generated 0 of 1 mixed pair_coeff terms from geometric mixing rule
Unused restart file global fix info:
  fix style: npt, fix ID: 5
  update every 1 steps, delay 0 steps, check yes
Step          Temp          Press          PotEng        Density         KinEng         TotEng           Lx             Ly             Lz            Xlo            Xhi            Ylo            Yhi            Zlo            Zhi           Volume           Dt            Time           CPU           T/CPU          S/CPU         CPULeft
15110000   303.87907      9.5973023     -5259022.3      2.8661255      904.89999     -5258117.4      504.6672       504.6672       504.6672       1747.6664      2252.3336      1747.6664      2252.3336      1747.6664      2252.3336      1.2853318e+08  0.1            2160000        0              0              0              0
Averages over the last 251 of 501 rows, steps 15160000 to 15210000:
Temp Press PotEng Density KinEng TotEng Lx Ly Lz Xlo Xhi Ylo Yhi Zlo Zhi Volume Dt
277724 2777.06 -4.82751e+06 2.86613 827014 -4.0005e+06 504.667 504.667 504.667 1747.67 2252.33 1747.67 2252.33 1747.67 2252.33 1.28533e+08 0.1
Loop time of 9.2067 on 4 procs for 100000 steps with 1000 atoms

unfix 2

fix 3 all nvt temp 370000 370000 $(100.0*dt) #iso 1.0 1.0 $(1000.0*dt)
fix 3 all nvt temp 370000 370000 10

run 200000
Generated 0 of 1 mixed pair_coeff terms from geometric mixing rule
Step          Temp          Press          PotEng        Density         KinEng         TotEng           Lx             Ly             Lz            Xlo            Xhi            Ylo            Yhi            Zlo            Zhi           Volume           Dt            Time           CPU           T/CPU          S/CPU         CPULeft
15210000   367701.99      4280.816      -4587525.8      2.8661255      1094953.7     -3492572.1      504.6672       504.6672       504.6672       1747.6664      2252.3336      1747.6664      2252.3336      1747.6664      2252.3336      1.2853318e+08  0.1            2170000        0              0              0              0
Averages over the last 501 of 1001 rows, steps 15310000 to 15410000:
Temp Press PotEng Density KinEng TotEng Lx Ly Lz Xlo Xhi Ylo Yhi Zlo Zhi Volume Dt
370055 4960.83 -4.43749e+06 2.86613 1.10196e+06 -3.33553e+06 504.667 504.667 504.667 1747.67 2252.33 1747.67 2252.33 1747.67 2252.33 1.28533e+08 0.1
Loop time of 18.7036 on 4 procs for 200000 steps with 1000 atoms

unfix 3

fix 4 all nvt temp 370000 300 100.0

run 100000
Generated 0 of 1 mixed pair_coeff terms from geometric mixing rule
Step          Temp          Press          PotEng        Density         KinEng         TotEng           Lx             Ly             Lz            Xlo            Xhi            Ylo            Yhi            Zlo            Zhi           Volume           Dt            Time           CPU           T/CPU          S/CPU         CPULeft
15410000   373288.87      4697.6893     -4485047.1      2.8661255      1111590.5     -3373456.5      504.6672       504.6672       504.6672       1747.6664      2252.3336      1747.6664      2252.3336      1747.6664      2252.3336      1.2853318e+08  0.1            2190000        0              0              0              0
Averages over the last 251 of 501 rows, steps 15460000 to 15510000:
Temp Press PotEng Density KinEng TotEng Lx Ly Lz Xlo Xhi Ylo Yhi Zlo Zhi Volume Dt
96549.6 1982.22 -4.95598e+06 2.86613 287508 -4.66847e+06 504.667 504.667 504.667 1747.67 2252.33 1747.67 2252.33 1747.67 2252.33 1.28533e+08 0.1
Loop time of 9.4577 on 4 procs for 100000 steps with 1000 atoms

unfix 4

fix 5 all npt temp 300 300 $(100.0*dt) iso 1.0 1.0 $(1000.0*dt)
fix 5 all npt temp 300 300 10 iso 1.0 1.0 $(1000.0*dt)
fix 5 all npt temp 300 300 10 iso 1.0 1.0 100

run 300000
Generated 0 of 1 mixed pair_coeff terms from geometric mixing rule
Step          Temp          Press          PotEng        Density         KinEng         TotEng           Lx             Ly             Lz            Xlo            Xhi            Ylo            Yhi            Zlo            Zhi           Volume           Dt            Time           CPU           T/CPU          S/CPU         CPULeft
15510000   5175.5683      770.94224     -5149321        2.8661255      15411.959     -5133909        504.6672       504.6672       504.6672       1747.6664      2252.3336      1747.6664      2252.3336      1747.6664      2252.3336      1.2853318e+08  0.1            2200000        0              0              0              0
Averages over the last 751 of 1501 rows, steps 15660000 to 15810000:
Temp Press PotEng Density KinEng TotEng Lx Ly Lz Xlo Xhi Ylo Yhi Zlo Zhi Volume Dt
304.449 1.10617 -5.2633e+06 2.86457 906.596 -5.26239e+06 504.759 504.759 504.759 1747.62 2252.38 1747.62 2252.38 1747.62 2252.38 1.28603e+08 0.1
Loop time of 33.7219 on 4 procs for 300000 steps with 1000 atoms

# run_style
run_style verlet

# write restart
write_restart ./pgnpmf/100/equpmf22.res
System init for write_restart ...
Generated 0 of 1 mixed pair_coeff terms from geometric mixing rule
