LAMMPS (23 Jun 2022 - Update 1)
# Read restart
read_restart ./pgnpmf/100/equpmf10.res
Reading restart file ...
  restart file = 23 Jun 2022, LAMMPS = 23 Jun 2022
  restoring atom style atomic from restart
  orthogonal box = (1675.8542 1675.8542 1675.8542) to (2324.1458 2324.1458 2324.1458)
  restoring pair style table from restart
  1000 atoms
  read_restart CPU = 0.008 seconds

# Settings

pair_style table spline 9941

pair_coeff 1 1 ./pgnpmf/N20.txt DE_GNP 75.6
pair_coeff 2 2 ./pgnpmf/N100.txt DE_GNP 115.92
pair_coeff 1 2 ./pgnpmf/mixed_potential.txt DE_GNP 95.66

#Neigh_list Calc Frequency

neigh_modify delay 0 every 1 check yes

# Saving Frequency (50 frames)

variable ts_save equal 5000

# Dump
#dump_modify 1 first no sort id
dump 2 all cfg 50000 ./pgnpmf/100/equilibration/trajectory/dumpgen.tens_*.cfg mass type xs ys zs fx fy fz
dump_modify 2 element N20 N100

# thermo_style
thermo_style custom step temp press pe density ke etotal lx ly lz xlo xhi ylo yhi zlo zhi vol dt time cpu tpcpu spcpu cpuremain

# run info
timestep 0.1
thermo 200

# fix

fix 1 all momentum 1000 linear 1 1 1 angular
variable T equal 300
fix 2 all nvt temp 300 370000 100.0

run 100000
Generated 0 of 1 mixed pair_coeff terms from geometric mixing rule
Unused restart file global fix info:
  fix style: npt, fix ID: 5
  update every 1 steps, delay 0 steps, check yes
Step          Temp          Press          PotEng        Density         KinEng         TotEng           Lx             Ly             Lz            Xlo            Xhi            Ylo            Yhi            Zlo            Zhi           Volume           Dt            Time           CPU           T/CPU          S/CPU         CPULeft
7410000   309.61432      1.9368456     -2466834.3      1.3520705      921.97856     -2465912.3      648.29157      648.29157      648.29157      1675.8542      2324.1458      1675.8542      2324.1458      1675.8542      2324.1458      2.7246525e+08  0.1            1390000        0              0              0              0
Averages over the last 251 of 501 rows, steps 7460000 to 7510000:
Temp Press PotEng Density KinEng TotEng Lx Ly Lz Xlo Xhi Ylo Yhi Zlo Zhi Volume Dt
277443 294.176 -2.39546e+06 1.35207 826177 -1.56928e+06 648.292 648.292 648.292 1675.85 2324.15 1675.85 2324.15 1675.85 2324.15 2.72465e+08 0.1
Loop time of 7.65411 on 4 procs for 100000 steps with 1000 atoms

unfix 2

fix 3 all nvt temp 370000 370000 $(100.0*dt) #iso 1.0 1.0 $(1000.0*dt)
fix 3 all nvt temp 370000 370000 10

run 200000
Generated 0 of 1 mixed pair_coeff terms from geometric mixing rule
Step          Temp          Press          PotEng        Density         KinEng         TotEng           Lx             Ly             Lz            Xlo            Xhi            Ylo            Yhi            Zlo            Zhi           Volume           Dt            Time           CPU           T/CPU          S/CPU         CPULeft
7510000   375615.17      527.51799     -2358469.7      1.3520705      1118517.8     -1239951.8      648.29157      648.29157      648.29157      1675.8542      2324.1458      1675.8542      2324.1458      1675.8542      2324.1458      2.7246525e+08  0.1            1400000        0              0              0              0
Averages over the last 501 of 1001 rows, steps 7610000 to 7710000:
Temp Press PotEng Density KinEng TotEng Lx Ly Lz Xlo Xhi Ylo Yhi Zlo Zhi Volume Dt
369736 287.92 -2.25109e+06 1.35207 1.10101e+06 -1.15008e+06 648.292 648.292 648.292 1675.85 2324.15 1675.85 2324.15 1675.85 2324.15 2.72465e+08 0.1
Loop time of 15.3675 on 4 procs for 200000 steps with 1000 atoms

unfix 3

fix 4 all nvt temp 370000 300 100.0

run 100000
Generated 0 of 1 mixed pair_coeff terms from geometric mixing rule
Step          Temp          Press          PotEng        Density         KinEng         TotEng           Lx             Ly             Lz            Xlo            Xhi            Ylo            Yhi            Zlo            Zhi           Volume           Dt            Time           CPU           T/CPU          S/CPU         CPULeft
7710000   373863.91      289.5918      -2218391        1.3520705      1113302.9     -1105088.1      648.29157      648.29157      648.29157      1675.8542      2324.1458      1675.8542      2324.1458      1675.8542      2324.1458      2.7246525e+08  0.1            1420000        0              0              0              0
Averages over the last 251 of 501 rows, steps 7760000 to 7810000:
Temp Press PotEng Density KinEng TotEng Lx Ly Lz Xlo Xhi Ylo Yhi Zlo Zhi Volume Dt
94794.3 -177.157 -2.3131e+06 1.35207 282281 -2.03082e+06 648.292 648.292 648.292 1675.85 2324.15 1675.85 2324.15 1675.85 2324.15 2.72465e+08 0.1
Loop time of 7.53808 on 4 procs for 100000 steps with 1000 atoms

unfix 4

fix 5 all npt temp 300 300 $(100.0*dt) iso 1.0 1.0 $(1000.0*dt)
fix 5 all npt temp 300 300 10 iso 1.0 1.0 $(1000.0*dt)
fix 5 all npt temp 300 300 10 iso 1.0 1.0 100

run 300000
Generated 0 of 1 mixed pair_coeff terms from geometric mixing rule
Step          Temp          Press          PotEng        Density         KinEng         TotEng           Lx             Ly             Lz            Xlo            Xhi            Ylo            Yhi            Zlo            Zhi           Volume           Dt            Time           CPU           T/CPU          S/CPU         CPULeft
7810000   4510.1557     -370.73762     -2363889.2      1.3520705      13430.474     -2350458.8      648.29157      648.29157      648.29157      1675.8542      2324.1458      1675.8542      2324.1458      1675.8542      2324.1458      2.7246525e+08  0.1            1430000        0              0              0              0
Averages over the last 751 of 1501 rows, steps 7960000 to 8110000:
Temp Press PotEng Density KinEng TotEng Lx Ly Lz Xlo Xhi Ylo Yhi Zlo Zhi Volume Dt
311.256 0.973953 -2.75831e+06 1.54239 926.869 -2.75739e+06 620.468 620.468 620.468 1689.77 2310.23 1689.77 2310.23 1689.77 2310.23 2.38879e+08 0.1
Loop time of 29.1975 on 4 procs for 300000 steps with 1000 atoms

# run_style
run_style verlet

# write restart
write_restart ./pgnpmf/100/equpmf11.res
System init for write_restart ...
Generated 0 of 1 mixed pair_coeff terms from geometric mixing rule
