LAMMPS (23 Jun 2022 - Update 1)
# Read restart
read_restart ./pgnpmf/100/equpmf33.res
Reading restart file ...
  restart file = 23 Jun 2022, LAMMPS = 23 Jun 2022
  restoring atom style atomic from restart
  orthogonal box = (1748.094 1748.094 1748.094) to (2251.906 2251.906 2251.906)
  restoring pair style table from restart
  1000 atoms
  read_restart CPU = 0.009 seconds

# Settings

pair_style table spline 9941

pair_coeff 1 1 ./pgnpmf/N20.txt DE_GNP 75.6
pair_coeff 2 2 ./pgnpmf/N100.txt DE_GNP 115.92
pair_coeff 1 2 ./pgnpmf/mixed_potential.txt DE_GNP 95.66

#Neigh_list Calc Frequency

neigh_modify delay 0 every 1 check yes

# Saving Frequency (50 frames)

variable ts_save equal 5000

# Dump
#dump_modify 1 first no sort id
dump 2 all cfg 50000 ./pgnpmf/100/equilibration/trajectory/dumpgen.tens_*.cfg mass type xs ys zs fx fy fz
dump_modify 2 element N20 N100

# thermo_style
thermo_style custom step temp press pe density ke etotal lx ly lz xlo xhi ylo yhi zlo zhi vol dt time cpu tpcpu spcpu cpuremain

# run info
timestep 0.1
thermo 200

# fix

fix 1 all momentum 1000 linear 1 1 1 angular
variable T equal 300
fix 2 all nvt temp 300 370000 100.0

run 100000
Generated 0 of 1 mixed pair_coeff terms from geometric mixing rule
Unused restart file global fix info:
  fix style: npt, fix ID: 5
  update every 1 steps, delay 0 steps, check yes
Step          Temp          Press          PotEng        Density         KinEng         TotEng           Lx             Ly             Lz            Xlo            Xhi            Ylo            Yhi            Zlo            Zhi           Volume           Dt            Time           CPU           T/CPU          S/CPU         CPULeft
23510000   303.53123      7.7900006     -5308441.9      2.8807443      903.86416     -5307538        503.81208      503.81208      503.81208      1748.094       2251.906       1748.094       2251.906       1748.094       2251.906       1.2788092e+08  0.1            3000000        0              0              0              0
Averages over the last 251 of 501 rows, steps 23560000 to 23610000:
Temp Press PotEng Density KinEng TotEng Lx Ly Lz Xlo Xhi Ylo Yhi Zlo Zhi Volume Dt
277519 2856.29 -4.85355e+06 2.88074 826403 -4.02715e+06 503.812 503.812 503.812 1748.09 2251.91 1748.09 2251.91 1748.09 2251.91 1.27881e+08 0.1
Loop time of 9.5726 on 4 procs for 100000 steps with 1000 atoms

unfix 2

fix 3 all nvt temp 370000 370000 $(100.0*dt) #iso 1.0 1.0 $(1000.0*dt)
fix 3 all nvt temp 370000 370000 10

run 200000
Generated 0 of 1 mixed pair_coeff terms from geometric mixing rule
Step          Temp          Press          PotEng        Density         KinEng         TotEng           Lx             Ly             Lz            Xlo            Xhi            Ylo            Yhi            Zlo            Zhi           Volume           Dt            Time           CPU           T/CPU          S/CPU         CPULeft
23610000   372759.24      4401.9874     -4589957.7      2.8807443      1110013.3     -3479944.3      503.81208      503.81208      503.81208      1748.094       2251.906       1748.094       2251.906       1748.094       2251.906       1.2788092e+08  0.1            3010000        0              0              0              0
Averages over the last 501 of 1001 rows, steps 23710000 to 23810000:
Temp Press PotEng Density KinEng TotEng Lx Ly Lz Xlo Xhi Ylo Yhi Zlo Zhi Volume Dt
369923 5136.15 -4.44854e+06 2.88074 1.10157e+06 -3.34697e+06 503.812 503.812 503.812 1748.09 2251.91 1748.09 2251.91 1748.09 2251.91 1.27881e+08 0.1
Loop time of 19.1955 on 4 procs for 200000 steps with 1000 atoms

unfix 3

fix 4 all nvt temp 370000 300 100.0

run 100000
Generated 0 of 1 mixed pair_coeff terms from geometric mixing rule
Step          Temp          Press          PotEng        Density         KinEng         TotEng           Lx             Ly             Lz            Xlo            Xhi            Ylo            Yhi            Zlo            Zhi           Volume           Dt            Time           CPU           T/CPU          S/CPU         CPULeft
23810000   364597.17      4974.4032     -4474796.3      2.8807443      1085708.1     -3389088.2      503.81208      503.81208      503.81208      1748.094       2251.906       1748.094       2251.906       1748.094       2251.906       1.2788092e+08  0.1            3030000        0              0              0              0
Averages over the last 251 of 501 rows, steps 23860000 to 23910000:
Temp Press PotEng Density KinEng TotEng Lx Ly Lz Xlo Xhi Ylo Yhi Zlo Zhi Volume Dt
96416.1 2036.9 -4.98162e+06 2.88074 287111 -4.69451e+06 503.812 503.812 503.812 1748.09 2251.91 1748.09 2251.91 1748.09 2251.91 1.27881e+08 0.1
Loop time of 9.52372 on 4 procs for 100000 steps with 1000 atoms

unfix 4

fix 5 all npt temp 300 300 $(100.0*dt) iso 1.0 1.0 $(1000.0*dt)
fix 5 all npt temp 300 300 10 iso 1.0 1.0 $(1000.0*dt)
fix 5 all npt temp 300 300 10 iso 1.0 1.0 100

run 300000
Generated 0 of 1 mixed pair_coeff terms from geometric mixing rule
Step          Temp          Press          PotEng        Density         KinEng         TotEng           Lx             Ly             Lz            Xlo            Xhi            Ylo            Yhi            Zlo            Zhi           Volume           Dt            Time           CPU           T/CPU          S/CPU         CPULeft
23910000   5256.8544      907.10686     -5157838.9      2.8807443      15654.015     -5142184.9      503.81208      503.81208      503.81208      1748.094       2251.906       1748.094       2251.906       1748.094       2251.906       1.2788092e+08  0.1            3040000        0              0              0              0
Averages over the last 751 of 1501 rows, steps 24060000 to 24210000:
Temp Press PotEng Density KinEng TotEng Lx Ly Lz Xlo Xhi Ylo Yhi Zlo Zhi Volume Dt
304.316 0.823127 -5.27859e+06 2.87272 906.201 -5.27769e+06 504.281 504.281 504.281 1747.86 2252.14 1747.86 2252.14 1747.86 2252.14 1.28238e+08 0.1
Loop time of 33.7247 on 4 procs for 300000 steps with 1000 atoms

# run_style
run_style verlet

# write restart
write_restart ./pgnpmf/100/equpmf34.res
System init for write_restart ...
Generated 0 of 1 mixed pair_coeff terms from geometric mixing rule
