LAMMPS (23 Jun 2022 - Update 1)
# Read restart
read_restart ./pgnpmf/100/equpmf65.res
Reading restart file ...
  restart file = 23 Jun 2022, LAMMPS = 23 Jun 2022
  restoring atom style atomic from restart
  orthogonal box = (1747.9958 1747.9958 1747.9958) to (2252.0042 2252.0042 2252.0042)
  restoring pair style table from restart
  1000 atoms
  read_restart CPU = 0.009 seconds

# Settings

pair_style table spline 9941

pair_coeff 1 1 ./pgnpmf/N20.txt DE_GNP 75.6
pair_coeff 2 2 ./pgnpmf/N100.txt DE_GNP 115.92
pair_coeff 1 2 ./pgnpmf/mixed_potential.txt DE_GNP 95.66

#Neigh_list Calc Frequency

neigh_modify delay 0 every 1 check yes

# Saving Frequency (50 frames)

variable ts_save equal 5000

# Dump
#dump_modify 1 first no sort id
dump 2 all cfg 50000 ./pgnpmf/100/equilibration/trajectory/dumpgen.tens_*.cfg mass type xs ys zs fx fy fz
dump_modify 2 element N20 N100

# thermo_style
thermo_style custom step temp press pe density ke etotal lx ly lz xlo xhi ylo yhi zlo zhi vol dt time cpu tpcpu spcpu cpuremain

# run info
timestep 0.1
thermo 200

# fix

fix 1 all momentum 1000 linear 1 1 1 angular
variable T equal 300
fix 2 all nvt temp 300 370000 100.0

run 100000
Generated 0 of 1 mixed pair_coeff terms from geometric mixing rule
Unused restart file global fix info:
  fix style: npt, fix ID: 5
  update every 1 steps, delay 0 steps, check yes
Step          Temp          Press          PotEng        Density         KinEng         TotEng           Lx             Ly             Lz            Xlo            Xhi            Ylo            Yhi            Zlo            Zhi           Volume           Dt            Time           CPU           T/CPU          S/CPU         CPULeft
45910000   303.26457      3.3893444     -5298856.4      2.8773797      903.07012     -5297953.3      504.00838      504.00838      504.00838      1747.9958      2252.0042      1747.9958      2252.0042      1747.9958      2252.0042      1.2803045e+08  0.1            5240000        0              0              0              0
Averages over the last 251 of 501 rows, steps 45960000 to 46010000:
Temp Press PotEng Density KinEng TotEng Lx Ly Lz Xlo Xhi Ylo Yhi Zlo Zhi Volume Dt
277654 2757.55 -4.86902e+06 2.87738 826806 -4.04222e+06 504.008 504.008 504.008 1748 2252 1748 2252 1748 2252 1.2803e+08 0.1
Loop time of 8.96346 on 4 procs for 100000 steps with 1000 atoms

unfix 2

fix 3 all nvt temp 370000 370000 $(100.0*dt) #iso 1.0 1.0 $(1000.0*dt)
fix 3 all nvt temp 370000 370000 10

run 200000
Generated 0 of 1 mixed pair_coeff terms from geometric mixing rule
Step          Temp          Press          PotEng        Density         KinEng         TotEng           Lx             Ly             Lz            Xlo            Xhi            Ylo            Yhi            Zlo            Zhi           Volume           Dt            Time           CPU           T/CPU          S/CPU         CPULeft
46010000   368007.51      4287.2903     -4614159.3      2.8773797      1095863.5     -3518295.8      504.00838      504.00838      504.00838      1747.9958      2252.0042      1747.9958      2252.0042      1747.9958      2252.0042      1.2803045e+08  0.1            5250000        0              0              0              0
Averages over the last 501 of 1001 rows, steps 46110000 to 46210000:
Temp Press PotEng Density KinEng TotEng Lx Ly Lz Xlo Xhi Ylo Yhi Zlo Zhi Volume Dt
369725 5043.7 -4.44897e+06 2.87738 1.10098e+06 -3.34799e+06 504.008 504.008 504.008 1748 2252 1748 2252 1748 2252 1.2803e+08 0.1
Loop time of 18.0454 on 4 procs for 200000 steps with 1000 atoms

unfix 3

fix 4 all nvt temp 370000 300 100.0

run 100000
Generated 0 of 1 mixed pair_coeff terms from geometric mixing rule
Step          Temp          Press          PotEng        Density         KinEng         TotEng           Lx             Ly             Lz            Xlo            Xhi            Ylo            Yhi            Zlo            Zhi           Volume           Dt            Time           CPU           T/CPU          S/CPU         CPULeft
46210000   366927.98      5080.9225     -4435379.5      2.8773797      1092648.9     -3342730.6      504.00838      504.00838      504.00838      1747.9958      2252.0042      1747.9958      2252.0042      1747.9958      2252.0042      1.2803045e+08  0.1            5270000        0              0              0              0
Averages over the last 251 of 501 rows, steps 46260000 to 46310000:
Temp Press PotEng Density KinEng TotEng Lx Ly Lz Xlo Xhi Ylo Yhi Zlo Zhi Volume Dt
96521.2 2014.58 -4.97606e+06 2.87738 287424 -4.68863e+06 504.008 504.008 504.008 1748 2252 1748 2252 1748 2252 1.2803e+08 0.1
Loop time of 9.03025 on 4 procs for 100000 steps with 1000 atoms

unfix 4

fix 5 all npt temp 300 300 $(100.0*dt) iso 1.0 1.0 $(1000.0*dt)
fix 5 all npt temp 300 300 10 iso 1.0 1.0 $(1000.0*dt)
fix 5 all npt temp 300 300 10 iso 1.0 1.0 100

run 300000
Generated 0 of 1 mixed pair_coeff terms from geometric mixing rule
Step          Temp          Press          PotEng        Density         KinEng         TotEng           Lx             Ly             Lz            Xlo            Xhi            Ylo            Yhi            Zlo            Zhi           Volume           Dt            Time           CPU           T/CPU          S/CPU         CPULeft
46310000   5208.1779      812.67108     -5161879.3      2.8773797      15509.064     -5146370.3      504.00838      504.00838      504.00838      1747.9958      2252.0042      1747.9958      2252.0042      1747.9958      2252.0042      1.2803045e+08  0.1            5280000        0              0              0              0
Averages over the last 751 of 1501 rows, steps 46460000 to 46610000:
Temp Press PotEng Density KinEng TotEng Lx Ly Lz Xlo Xhi Ylo Yhi Zlo Zhi Volume Dt
304.669 0.645449 -5.28712e+06 2.8752 907.253 -5.28621e+06 504.136 504.136 504.136 1747.93 2252.07 1747.93 2252.07 1747.93 2252.07 1.28128e+08 0.1
Loop time of 32.1785 on 4 procs for 300000 steps with 1000 atoms

# run_style
run_style verlet

# write restart
write_restart ./pgnpmf/100/equpmf66.res
System init for write_restart ...
Generated 0 of 1 mixed pair_coeff terms from geometric mixing rule
