LAMMPS (23 Jun 2022 - Update 1)
# Read restart
read_restart ./pgnpmf/100/equpmf28.res
Reading restart file ...
  restart file = 23 Jun 2022, LAMMPS = 23 Jun 2022
  restoring atom style atomic from restart
  orthogonal box = (1747.2764 1747.2764 1747.2764) to (2252.7236 2252.7236 2252.7236)
  restoring pair style table from restart
  1000 atoms
  read_restart CPU = 0.010 seconds

# Settings

pair_style table spline 9941

pair_coeff 1 1 ./pgnpmf/N20.txt DE_GNP 75.6
pair_coeff 2 2 ./pgnpmf/N100.txt DE_GNP 115.92
pair_coeff 1 2 ./pgnpmf/mixed_potential.txt DE_GNP 95.66

#Neigh_list Calc Frequency

neigh_modify delay 0 every 1 check yes

# Saving Frequency (50 frames)

variable ts_save equal 5000

# Dump
#dump_modify 1 first no sort id
dump 2 all cfg 50000 ./pgnpmf/100/equilibration/trajectory/dumpgen.tens_*.cfg mass type xs ys zs fx fy fz
dump_modify 2 element N20 N100

# thermo_style
thermo_style custom step temp press pe density ke etotal lx ly lz xlo xhi ylo yhi zlo zhi vol dt time cpu tpcpu spcpu cpuremain

# run info
timestep 0.1
thermo 200

# fix

fix 1 all momentum 1000 linear 1 1 1 angular
variable T equal 300
fix 2 all nvt temp 300 370000 100.0

run 100000
Generated 0 of 1 mixed pair_coeff terms from geometric mixing rule
Unused restart file global fix info:
  fix style: npt, fix ID: 5
  update every 1 steps, delay 0 steps, check yes
Step          Temp          Press          PotEng        Density         KinEng         TotEng           Lx             Ly             Lz            Xlo            Xhi            Ylo            Yhi            Zlo            Zhi           Volume           Dt            Time           CPU           T/CPU          S/CPU         CPULeft
20010000   303.60487     -2.1800077     -5246109.5      2.8528762      904.08345     -5245205.4      505.44725      505.44725      505.44725      1747.2764      2252.7236      1747.2764      2252.7236      1747.2764      2252.7236      1.2913011e+08  0.1            2650000        0              0              0              0
Averages over the last 251 of 501 rows, steps 20060000 to 20110000:
Temp Press PotEng Density KinEng TotEng Lx Ly Lz Xlo Xhi Ylo Yhi Zlo Zhi Volume Dt
277472 2667.36 -4.83122e+06 2.85288 826265 -4.00495e+06 505.447 505.447 505.447 1747.28 2252.72 1747.28 2252.72 1747.28 2252.72 1.2913e+08 0.1
Loop time of 9.3709 on 4 procs for 100000 steps with 1000 atoms

unfix 2

fix 3 all nvt temp 370000 370000 $(100.0*dt) #iso 1.0 1.0 $(1000.0*dt)
fix 3 all nvt temp 370000 370000 10

run 200000
Generated 0 of 1 mixed pair_coeff terms from geometric mixing rule
Step          Temp          Press          PotEng        Density         KinEng         TotEng           Lx             Ly             Lz            Xlo            Xhi            Ylo            Yhi            Zlo            Zhi           Volume           Dt            Time           CPU           T/CPU          S/CPU         CPULeft
20110000   372818.16      4201.5966     -4562955        2.8528762      1110188.8     -3452766.1      505.44725      505.44725      505.44725      1747.2764      2252.7236      1747.2764      2252.7236      1747.2764      2252.7236      1.2913011e+08  0.1            2660000        0              0              0              0
Averages over the last 501 of 1001 rows, steps 20210000 to 20310000:
Temp Press PotEng Density KinEng TotEng Lx Ly Lz Xlo Xhi Ylo Yhi Zlo Zhi Volume Dt
369997 4781.96 -4.43671e+06 2.85288 1.10179e+06 -3.33492e+06 505.447 505.447 505.447 1747.28 2252.72 1747.28 2252.72 1747.28 2252.72 1.2913e+08 0.1
Loop time of 19.0669 on 4 procs for 200000 steps with 1000 atoms

unfix 3

fix 4 all nvt temp 370000 300 100.0

run 100000
Generated 0 of 1 mixed pair_coeff terms from geometric mixing rule
Step          Temp          Press          PotEng        Density         KinEng         TotEng           Lx             Ly             Lz            Xlo            Xhi            Ylo            Yhi            Zlo            Zhi           Volume           Dt            Time           CPU           T/CPU          S/CPU         CPULeft
20310000   374432.16      4689.6282     -4438929.6      2.8528762      1114995       -3323934.5      505.44725      505.44725      505.44725      1747.2764      2252.7236      1747.2764      2252.7236      1747.2764      2252.7236      1.2913011e+08  0.1            2680000        0              0              0              0
Averages over the last 251 of 501 rows, steps 20360000 to 20410000:
Temp Press PotEng Density KinEng TotEng Lx Ly Lz Xlo Xhi Ylo Yhi Zlo Zhi Volume Dt
96275.9 1876.39 -4.93903e+06 2.85288 286693 -4.65234e+06 505.447 505.447 505.447 1747.28 2252.72 1747.28 2252.72 1747.28 2252.72 1.2913e+08 0.1
Loop time of 9.53561 on 4 procs for 100000 steps with 1000 atoms

unfix 4

fix 5 all npt temp 300 300 $(100.0*dt) iso 1.0 1.0 $(1000.0*dt)
fix 5 all npt temp 300 300 10 iso 1.0 1.0 $(1000.0*dt)
fix 5 all npt temp 300 300 10 iso 1.0 1.0 100

run 300000
Generated 0 of 1 mixed pair_coeff terms from geometric mixing rule
Step          Temp          Press          PotEng        Density         KinEng         TotEng           Lx             Ly             Lz            Xlo            Xhi            Ylo            Yhi            Zlo            Zhi           Volume           Dt            Time           CPU           T/CPU          S/CPU         CPULeft
20410000   5197.1077      769.60296     -5108931.7      2.8528762      15476.099     -5093455.6      505.44725      505.44725      505.44725      1747.2764      2252.7236      1747.2764      2252.7236      1747.2764      2252.7236      1.2913011e+08  0.1            2690000        0              0              0              0
Averages over the last 751 of 1501 rows, steps 20560000 to 20710000:
Temp Press PotEng Density KinEng TotEng Lx Ly Lz Xlo Xhi Ylo Yhi Zlo Zhi Volume Dt
304.385 1.11368 -5.23557e+06 2.85386 906.406 -5.23467e+06 505.39 505.39 505.39 1747.31 2252.69 1747.31 2252.69 1747.31 2252.69 1.29086e+08 0.1
Loop time of 33.8172 on 4 procs for 300000 steps with 1000 atoms

# run_style
run_style verlet

# write restart
write_restart ./pgnpmf/100/equpmf29.res
System init for write_restart ...
Generated 0 of 1 mixed pair_coeff terms from geometric mixing rule
