LAMMPS (23 Jun 2022 - Update 1)
# Read restart
read_restart ./pgnpmf/100/equpmf38.res
Reading restart file ...
  restart file = 23 Jun 2022, LAMMPS = 23 Jun 2022
  restoring atom style atomic from restart
  orthogonal box = (1747.7174 1747.7174 1747.7174) to (2252.2826 2252.2826 2252.2826)
  restoring pair style table from restart
  1000 atoms
  read_restart CPU = 0.008 seconds

# Settings

pair_style table spline 9941

pair_coeff 1 1 ./pgnpmf/N20.txt DE_GNP 75.6
pair_coeff 2 2 ./pgnpmf/N100.txt DE_GNP 115.92
pair_coeff 1 2 ./pgnpmf/mixed_potential.txt DE_GNP 95.66

#Neigh_list Calc Frequency

neigh_modify delay 0 every 1 check yes

# Saving Frequency (50 frames)

variable ts_save equal 5000

# Dump
#dump_modify 1 first no sort id
dump 2 all cfg 50000 ./pgnpmf/100/equilibration/trajectory/dumpgen.tens_*.cfg mass type xs ys zs fx fy fz
dump_modify 2 element N20 N100

# thermo_style
thermo_style custom step temp press pe density ke etotal lx ly lz xlo xhi ylo yhi zlo zhi vol dt time cpu tpcpu spcpu cpuremain

# run info
timestep 0.1
thermo 200

# fix

fix 1 all momentum 1000 linear 1 1 1 angular
variable T equal 300
fix 2 all nvt temp 300 370000 100.0

run 100000
Generated 0 of 1 mixed pair_coeff terms from geometric mixing rule
Unused restart file global fix info:
  fix style: npt, fix ID: 5
  update every 1 steps, delay 0 steps, check yes
Step          Temp          Press          PotEng        Density         KinEng         TotEng           Lx             Ly             Lz            Xlo            Xhi            Ylo            Yhi            Zlo            Zhi           Volume           Dt            Time           CPU           T/CPU          S/CPU         CPULeft
27010000   303.48166     -0.98736627    -5269930.8      2.8678631      903.71655     -5269027.1      504.56526      504.56526      504.56526      1747.7174      2252.2826      1747.7174      2252.2826      1747.7174      2252.2826      1.284553e+08   0.1            3350000        0              0              0              0
Averages over the last 251 of 501 rows, steps 27060000 to 27110000:
Temp Press PotEng Density KinEng TotEng Lx Ly Lz Xlo Xhi Ylo Yhi Zlo Zhi Volume Dt
277457 2727.87 -4.85229e+06 2.86786 826220 -4.02607e+06 504.565 504.565 504.565 1747.72 2252.28 1747.72 2252.28 1747.72 2252.28 1.28455e+08 0.1
Loop time of 9.32855 on 4 procs for 100000 steps with 1000 atoms

unfix 2

fix 3 all nvt temp 370000 370000 $(100.0*dt) #iso 1.0 1.0 $(1000.0*dt)
fix 3 all nvt temp 370000 370000 10

run 200000
Generated 0 of 1 mixed pair_coeff terms from geometric mixing rule
Step          Temp          Press          PotEng        Density         KinEng         TotEng           Lx             Ly             Lz            Xlo            Xhi            Ylo            Yhi            Zlo            Zhi           Volume           Dt            Time           CPU           T/CPU          S/CPU         CPULeft
27110000   372470.96      4226.9854     -4599894.4      2.8678631      1109154.9     -3490739.5      504.56526      504.56526      504.56526      1747.7174      2252.2826      1747.7174      2252.2826      1747.7174      2252.2826      1.284553e+08   0.1            3360000        0              0              0              0
Averages over the last 501 of 1001 rows, steps 27210000 to 27310000:
Temp Press PotEng Density KinEng TotEng Lx Ly Lz Xlo Xhi Ylo Yhi Zlo Zhi Volume Dt
369722 4980.98 -4.43177e+06 2.86786 1.10097e+06 -3.3308e+06 504.565 504.565 504.565 1747.72 2252.28 1747.72 2252.28 1747.72 2252.28 1.28455e+08 0.1
Loop time of 18.8575 on 4 procs for 200000 steps with 1000 atoms

unfix 3

fix 4 all nvt temp 370000 300 100.0

run 100000
Generated 0 of 1 mixed pair_coeff terms from geometric mixing rule
Step          Temp          Press          PotEng        Density         KinEng         TotEng           Lx             Ly             Lz            Xlo            Xhi            Ylo            Yhi            Zlo            Zhi           Volume           Dt            Time           CPU           T/CPU          S/CPU         CPULeft
27310000   372562.27      4766.2115     -4470024.2      2.8678631      1109426.8     -3360597.4      504.56526      504.56526      504.56526      1747.7174      2252.2826      1747.7174      2252.2826      1747.7174      2252.2826      1.284553e+08   0.1            3380000        0              0              0              0
Averages over the last 251 of 501 rows, steps 27360000 to 27410000:
Temp Press PotEng Density KinEng TotEng Lx Ly Lz Xlo Xhi Ylo Yhi Zlo Zhi Volume Dt
96506.1 1905.1 -4.97503e+06 2.86786 287379 -4.68765e+06 504.565 504.565 504.565 1747.72 2252.28 1747.72 2252.28 1747.72 2252.28 1.28455e+08 0.1
Loop time of 9.44 on 4 procs for 100000 steps with 1000 atoms

unfix 4

fix 5 all npt temp 300 300 $(100.0*dt) iso 1.0 1.0 $(1000.0*dt)
fix 5 all npt temp 300 300 10 iso 1.0 1.0 $(1000.0*dt)
fix 5 all npt temp 300 300 10 iso 1.0 1.0 100

run 300000
Generated 0 of 1 mixed pair_coeff terms from geometric mixing rule
Step          Temp          Press          PotEng        Density         KinEng         TotEng           Lx             Ly             Lz            Xlo            Xhi            Ylo            Yhi            Zlo            Zhi           Volume           Dt            Time           CPU           T/CPU          S/CPU         CPULeft
27410000   5154.2603      709.58998     -5155506.8      2.8678631      15348.507     -5140158.3      504.56526      504.56526      504.56526      1747.7174      2252.2826      1747.7174      2252.2826      1747.7174      2252.2826      1.284553e+08   0.1            3390000        0              0              0              0
Averages over the last 751 of 1501 rows, steps 27560000 to 27710000:
Temp Press PotEng Density KinEng TotEng Lx Ly Lz Xlo Xhi Ylo Yhi Zlo Zhi Volume Dt
304.458 0.958237 -5.27915e+06 2.86999 906.623 -5.27825e+06 504.441 504.441 504.441 1747.78 2252.22 1747.78 2252.22 1747.78 2252.22 1.2836e+08 0.1
Loop time of 33.4006 on 4 procs for 300000 steps with 1000 atoms

# run_style
run_style verlet

# write restart
write_restart ./pgnpmf/100/equpmf39.res
System init for write_restart ...
Generated 0 of 1 mixed pair_coeff terms from geometric mixing rule
