LAMMPS (23 Jun 2022 - Update 1)
# Read restart
read_restart ./pgnpmf/100/equpmf68.res
Reading restart file ...
  restart file = 23 Jun 2022, LAMMPS = 23 Jun 2022
  restoring atom style atomic from restart
  orthogonal box = (1747.6058 1747.6058 1747.6058) to (2252.3942 2252.3942 2252.3942)
  restoring pair style table from restart
  1000 atoms
  read_restart CPU = 0.010 seconds

# Settings

pair_style table spline 9941

pair_coeff 1 1 ./pgnpmf/N20.txt DE_GNP 75.6
pair_coeff 2 2 ./pgnpmf/N100.txt DE_GNP 115.92
pair_coeff 1 2 ./pgnpmf/mixed_potential.txt DE_GNP 95.66

#Neigh_list Calc Frequency

neigh_modify delay 0 every 1 check yes

# Saving Frequency (50 frames)

variable ts_save equal 5000

# Dump
#dump_modify 1 first no sort id
dump 2 all cfg 50000 ./pgnpmf/100/equilibration/trajectory/dumpgen.tens_*.cfg mass type xs ys zs fx fy fz
dump_modify 2 element N20 N100

# thermo_style
thermo_style custom step temp press pe density ke etotal lx ly lz xlo xhi ylo yhi zlo zhi vol dt time cpu tpcpu spcpu cpuremain

# run info
timestep 0.1
thermo 200

# fix

fix 1 all momentum 1000 linear 1 1 1 angular
variable T equal 300
fix 2 all nvt temp 300 370000 100.0

run 100000
Generated 0 of 1 mixed pair_coeff terms from geometric mixing rule
Unused restart file global fix info:
  fix style: npt, fix ID: 5
  update every 1 steps, delay 0 steps, check yes
Step          Temp          Press          PotEng        Density         KinEng         TotEng           Lx             Ly             Lz            Xlo            Xhi            Ylo            Yhi            Zlo            Zhi           Volume           Dt            Time           CPU           T/CPU          S/CPU         CPULeft
48010000   303.47365      5.3136425     -5256578.9      2.864062       903.69271     -5255675.2      504.78838      504.78838      504.78838      1747.6058      2252.3942      1747.6058      2252.3942      1747.6058      2252.3942      1.2862579e+08  0.1            5450000        0              0              0              0
Averages over the last 251 of 501 rows, steps 48060000 to 48110000:
Temp Press PotEng Density KinEng TotEng Lx Ly Lz Xlo Xhi Ylo Yhi Zlo Zhi Volume Dt
277460 2708.89 -4.84165e+06 2.86406 826229 -4.01543e+06 504.788 504.788 504.788 1747.61 2252.39 1747.61 2252.39 1747.61 2252.39 1.28626e+08 0.1
Loop time of 9.40407 on 4 procs for 100000 steps with 1000 atoms

unfix 2

fix 3 all nvt temp 370000 370000 $(100.0*dt) #iso 1.0 1.0 $(1000.0*dt)
fix 3 all nvt temp 370000 370000 10

run 200000
Generated 0 of 1 mixed pair_coeff terms from geometric mixing rule
Step          Temp          Press          PotEng        Density         KinEng         TotEng           Lx             Ly             Lz            Xlo            Xhi            Ylo            Yhi            Zlo            Zhi           Volume           Dt            Time           CPU           T/CPU          S/CPU         CPULeft
48110000   372280.21      4203.6518     -4594517.6      2.864062       1108586.9     -3485930.7      504.78838      504.78838      504.78838      1747.6058      2252.3942      1747.6058      2252.3942      1747.6058      2252.3942      1.2862579e+08  0.1            5460000        0              0              0              0
Averages over the last 501 of 1001 rows, steps 48210000 to 48310000:
Temp Press PotEng Density KinEng TotEng Lx Ly Lz Xlo Xhi Ylo Yhi Zlo Zhi Volume Dt
370255 5000.27 -4.41429e+06 2.86406 1.10256e+06 -3.31173e+06 504.788 504.788 504.788 1747.61 2252.39 1747.61 2252.39 1747.61 2252.39 1.28626e+08 0.1
Loop time of 18.9284 on 4 procs for 200000 steps with 1000 atoms

unfix 3

fix 4 all nvt temp 370000 300 100.0

run 100000
Generated 0 of 1 mixed pair_coeff terms from geometric mixing rule
Step          Temp          Press          PotEng        Density         KinEng         TotEng           Lx             Ly             Lz            Xlo            Xhi            Ylo            Yhi            Zlo            Zhi           Volume           Dt            Time           CPU           T/CPU          S/CPU         CPULeft
48310000   379108.53      4812.2889     -4439336.6      2.864062       1128920.5     -3310416.1      504.78838      504.78838      504.78838      1747.6058      2252.3942      1747.6058      2252.3942      1747.6058      2252.3942      1.2862579e+08  0.1            5480000        0              0              0              0
Averages over the last 251 of 501 rows, steps 48360000 to 48410000:
Temp Press PotEng Density KinEng TotEng Lx Ly Lz Xlo Xhi Ylo Yhi Zlo Zhi Volume Dt
96536.1 1815.21 -4.97141e+06 2.86406 287468 -4.68394e+06 504.788 504.788 504.788 1747.61 2252.39 1747.61 2252.39 1747.61 2252.39 1.28626e+08 0.1
Loop time of 9.52369 on 4 procs for 100000 steps with 1000 atoms

unfix 4

fix 5 all npt temp 300 300 $(100.0*dt) iso 1.0 1.0 $(1000.0*dt)
fix 5 all npt temp 300 300 10 iso 1.0 1.0 $(1000.0*dt)
fix 5 all npt temp 300 300 10 iso 1.0 1.0 100

run 300000
Generated 0 of 1 mixed pair_coeff terms from geometric mixing rule
Step          Temp          Press          PotEng        Density         KinEng         TotEng           Lx             Ly             Lz            Xlo            Xhi            Ylo            Yhi            Zlo            Zhi           Volume           Dt            Time           CPU           T/CPU          S/CPU         CPULeft
48410000   5145.6494      672.47245     -5153812.1      2.864062       15322.865     -5138489.3      504.78838      504.78838      504.78838      1747.6058      2252.3942      1747.6058      2252.3942      1747.6058      2252.3942      1.2862579e+08  0.1            5490000        0              0              0              0
Averages over the last 751 of 1501 rows, steps 48560000 to 48710000:
Temp Press PotEng Density KinEng TotEng Lx Ly Lz Xlo Xhi Ylo Yhi Zlo Zhi Volume Dt
304.397 0.628452 -5.27066e+06 2.869 906.441 -5.26975e+06 504.499 504.499 504.499 1747.75 2252.25 1747.75 2252.25 1747.75 2252.25 1.28404e+08 0.1
Loop time of 33.7798 on 4 procs for 300000 steps with 1000 atoms

# run_style
run_style verlet

# write restart
write_restart ./pgnpmf/100/equpmf69.res
System init for write_restart ...
Generated 0 of 1 mixed pair_coeff terms from geometric mixing rule
