LAMMPS (23 Jun 2022 - Update 1)
# Read restart
read_restart ./pgnpmf/100/equpmf43.res
Reading restart file ...
  restart file = 23 Jun 2022, LAMMPS = 23 Jun 2022
  restoring atom style atomic from restart
  orthogonal box = (1747.8423 1747.8423 1747.8423) to (2252.1577 2252.1577 2252.1577)
  restoring pair style table from restart
  1000 atoms
  read_restart CPU = 0.008 seconds

# Settings

pair_style table spline 9941

pair_coeff 1 1 ./pgnpmf/N20.txt DE_GNP 75.6
pair_coeff 2 2 ./pgnpmf/N100.txt DE_GNP 115.92
pair_coeff 1 2 ./pgnpmf/mixed_potential.txt DE_GNP 95.66

#Neigh_list Calc Frequency

neigh_modify delay 0 every 1 check yes

# Saving Frequency (50 frames)

variable ts_save equal 5000

# Dump
#dump_modify 1 first no sort id
dump 2 all cfg 50000 ./pgnpmf/100/equilibration/trajectory/dumpgen.tens_*.cfg mass type xs ys zs fx fy fz
dump_modify 2 element N20 N100

# thermo_style
thermo_style custom step temp press pe density ke etotal lx ly lz xlo xhi ylo yhi zlo zhi vol dt time cpu tpcpu spcpu cpuremain

# run info
timestep 0.1
thermo 200

# fix

fix 1 all momentum 1000 linear 1 1 1 angular
variable T equal 300
fix 2 all nvt temp 300 370000 100.0

run 100000
Generated 0 of 1 mixed pair_coeff terms from geometric mixing rule
Unused restart file global fix info:
  fix style: npt, fix ID: 5
  update every 1 steps, delay 0 steps, check yes
Step          Temp          Press          PotEng        Density         KinEng         TotEng           Lx             Ly             Lz            Xlo            Xhi            Ylo            Yhi            Zlo            Zhi           Volume           Dt            Time           CPU           T/CPU          S/CPU         CPULeft
30510000   303.49785     -4.019571      -5282784.6      2.8721289      903.76476     -5281880.8      504.31533      504.31533      504.31533      1747.8423      2252.1577      1747.8423      2252.1577      1747.8423      2252.1577      1.2826451e+08  0.1            3700000        0              0              0              0
Averages over the last 251 of 501 rows, steps 30560000 to 30610000:
Temp Press PotEng Density KinEng TotEng Lx Ly Lz Xlo Xhi Ylo Yhi Zlo Zhi Volume Dt
277427 2761.35 -4.86029e+06 2.87213 826129 -4.03416e+06 504.315 504.315 504.315 1747.84 2252.16 1747.84 2252.16 1747.84 2252.16 1.28265e+08 0.1
Loop time of 12.969 on 4 procs for 100000 steps with 1000 atoms

unfix 2

fix 3 all nvt temp 370000 370000 $(100.0*dt) #iso 1.0 1.0 $(1000.0*dt)
fix 3 all nvt temp 370000 370000 10

run 200000
Generated 0 of 1 mixed pair_coeff terms from geometric mixing rule
Step          Temp          Press          PotEng        Density         KinEng         TotEng           Lx             Ly             Lz            Xlo            Xhi            Ylo            Yhi            Zlo            Zhi           Volume           Dt            Time           CPU           T/CPU          S/CPU         CPULeft
30610000   371690.77      4103.6395     -4649373.5      2.8721289      1106831.6     -3542541.8      504.31533      504.31533      504.31533      1747.8423      2252.1577      1747.8423      2252.1577      1747.8423      2252.1577      1.2826451e+08  0.1            3710000        0              0              0              0
Averages over the last 501 of 1001 rows, steps 30710000 to 30810000:
Temp Press PotEng Density KinEng TotEng Lx Ly Lz Xlo Xhi Ylo Yhi Zlo Zhi Volume Dt
369857 5134.08 -4.41777e+06 2.87213 1.10137e+06 -3.3164e+06 504.315 504.315 504.315 1747.84 2252.16 1747.84 2252.16 1747.84 2252.16 1.28265e+08 0.1
Loop time of 18.1539 on 4 procs for 200000 steps with 1000 atoms

unfix 3

fix 4 all nvt temp 370000 300 100.0

run 100000
Generated 0 of 1 mixed pair_coeff terms from geometric mixing rule
Step          Temp          Press          PotEng        Density         KinEng         TotEng           Lx             Ly             Lz            Xlo            Xhi            Ylo            Yhi            Zlo            Zhi           Volume           Dt            Time           CPU           T/CPU          S/CPU         CPULeft
30810000   385518.58      4968.7108     -4452339.7      2.8721289      1148008.5     -3304331.2      504.31533      504.31533      504.31533      1747.8423      2252.1577      1747.8423      2252.1577      1747.8423      2252.1577      1.2826451e+08  0.1            3730000        0              0              0              0
Averages over the last 251 of 501 rows, steps 30860000 to 30910000:
Temp Press PotEng Density KinEng TotEng Lx Ly Lz Xlo Xhi Ylo Yhi Zlo Zhi Volume Dt
96180.5 2045.78 -4.96953e+06 2.87213 286409 -4.68312e+06 504.315 504.315 504.315 1747.84 2252.16 1747.84 2252.16 1747.84 2252.16 1.28265e+08 0.1
Loop time of 9.16635 on 4 procs for 100000 steps with 1000 atoms

unfix 4

fix 5 all npt temp 300 300 $(100.0*dt) iso 1.0 1.0 $(1000.0*dt)
fix 5 all npt temp 300 300 10 iso 1.0 1.0 $(1000.0*dt)
fix 5 all npt temp 300 300 10 iso 1.0 1.0 100

run 300000
Generated 0 of 1 mixed pair_coeff terms from geometric mixing rule
Step          Temp          Press          PotEng        Density         KinEng         TotEng           Lx             Ly             Lz            Xlo            Xhi            Ylo            Yhi            Zlo            Zhi           Volume           Dt            Time           CPU           T/CPU          S/CPU         CPULeft
30910000   5237.0107      933.87832     -5142501        2.8721289      15594.924     -5126906        504.31533      504.31533      504.31533      1747.8423      2252.1577      1747.8423      2252.1577      1747.8423      2252.1577      1.2826451e+08  0.1            3740000        0              0              0              0
Averages over the last 751 of 1501 rows, steps 31060000 to 31210000:
Temp Press PotEng Density KinEng TotEng Lx Ly Lz Xlo Xhi Ylo Yhi Zlo Zhi Volume Dt
304.332 1.37432 -5.25868e+06 2.86174 906.25 -5.25778e+06 504.925 504.925 504.925 1747.54 2252.46 1747.54 2252.46 1747.54 2252.46 1.2873e+08 0.1
Loop time of 32.5116 on 4 procs for 300000 steps with 1000 atoms

# run_style
run_style verlet

# write restart
write_restart ./pgnpmf/100/equpmf44.res
System init for write_restart ...
Generated 0 of 1 mixed pair_coeff terms from geometric mixing rule
