LAMMPS (23 Jun 2022 - Update 1)
# Read restart
read_restart ./pgnpmf/100/equpmf58.res
Reading restart file ...
  restart file = 23 Jun 2022, LAMMPS = 23 Jun 2022
  restoring atom style atomic from restart
  orthogonal box = (1747.9817 1747.9817 1747.9817) to (2252.0183 2252.0183 2252.0183)
  restoring pair style table from restart
  1000 atoms
  read_restart CPU = 0.009 seconds

# Settings

pair_style table spline 9941

pair_coeff 1 1 ./pgnpmf/N20.txt DE_GNP 75.6
pair_coeff 2 2 ./pgnpmf/N100.txt DE_GNP 115.92
pair_coeff 1 2 ./pgnpmf/mixed_potential.txt DE_GNP 95.66

#Neigh_list Calc Frequency

neigh_modify delay 0 every 1 check yes

# Saving Frequency (50 frames)

variable ts_save equal 5000

# Dump
#dump_modify 1 first no sort id
dump 2 all cfg 50000 ./pgnpmf/100/equilibration/trajectory/dumpgen.tens_*.cfg mass type xs ys zs fx fy fz
dump_modify 2 element N20 N100

# thermo_style
thermo_style custom step temp press pe density ke etotal lx ly lz xlo xhi ylo yhi zlo zhi vol dt time cpu tpcpu spcpu cpuremain

# run info
timestep 0.1
thermo 200

# fix

fix 1 all momentum 1000 linear 1 1 1 angular
variable T equal 300
fix 2 all nvt temp 300 370000 100.0

run 100000
Generated 0 of 1 mixed pair_coeff terms from geometric mixing rule
Unused restart file global fix info:
  fix style: npt, fix ID: 5
  update every 1 steps, delay 0 steps, check yes
Step          Temp          Press          PotEng        Density         KinEng         TotEng           Lx             Ly             Lz            Xlo            Xhi            Ylo            Yhi            Zlo            Zhi           Volume           Dt            Time           CPU           T/CPU          S/CPU         CPULeft
41010000   303.03366      3.9060301     -5305264        2.8768963      902.38248     -5304361.7      504.03661      504.03661      504.03661      1747.9817      2252.0183      1747.9817      2252.0183      1747.9817      2252.0183      1.2805196e+08  0.1            4750000        0              0              0              0
Averages over the last 251 of 501 rows, steps 41060000 to 41110000:
Temp Press PotEng Density KinEng TotEng Lx Ly Lz Xlo Xhi Ylo Yhi Zlo Zhi Volume Dt
277893 2839.21 -4.8539e+06 2.8769 827518 -4.02639e+06 504.037 504.037 504.037 1747.98 2252.02 1747.98 2252.02 1747.98 2252.02 1.28052e+08 0.1
Loop time of 9.37147 on 4 procs for 100000 steps with 1000 atoms

unfix 2

fix 3 all nvt temp 370000 370000 $(100.0*dt) #iso 1.0 1.0 $(1000.0*dt)
fix 3 all nvt temp 370000 370000 10

run 200000
Generated 0 of 1 mixed pair_coeff terms from geometric mixing rule
Step          Temp          Press          PotEng        Density         KinEng         TotEng           Lx             Ly             Lz            Xlo            Xhi            Ylo            Yhi            Zlo            Zhi           Volume           Dt            Time           CPU           T/CPU          S/CPU         CPULeft
41110000   366448.46      4513.7481     -4590567.2      2.8768963      1091220.9     -3499346.2      504.03661      504.03661      504.03661      1747.9817      2252.0183      1747.9817      2252.0183      1747.9817      2252.0183      1.2805196e+08  0.1            4760000        0              0              0              0
Averages over the last 501 of 1001 rows, steps 41210000 to 41310000:
Temp Press PotEng Density KinEng TotEng Lx Ly Lz Xlo Xhi Ylo Yhi Zlo Zhi Volume Dt
370063 5096.66 -4.43183e+06 2.8769 1.10198e+06 -3.32984e+06 504.037 504.037 504.037 1747.98 2252.02 1747.98 2252.02 1747.98 2252.02 1.28052e+08 0.1
Loop time of 18.7566 on 4 procs for 200000 steps with 1000 atoms

unfix 3

fix 4 all nvt temp 370000 300 100.0

run 100000
Generated 0 of 1 mixed pair_coeff terms from geometric mixing rule
Step          Temp          Press          PotEng        Density         KinEng         TotEng           Lx             Ly             Lz            Xlo            Xhi            Ylo            Yhi            Zlo            Zhi           Volume           Dt            Time           CPU           T/CPU          S/CPU         CPULeft
41310000   353880.96      5238.7881     -4394982.9      2.8768963      1053797.1     -3341185.8      504.03661      504.03661      504.03661      1747.9817      2252.0183      1747.9817      2252.0183      1747.9817      2252.0183      1.2805196e+08  0.1            4780000        0              0              0              0
Averages over the last 251 of 501 rows, steps 41360000 to 41410000:
Temp Press PotEng Density KinEng TotEng Lx Ly Lz Xlo Xhi Ylo Yhi Zlo Zhi Volume Dt
96460.2 2102.92 -4.95513e+06 2.8769 287242 -4.66788e+06 504.037 504.037 504.037 1747.98 2252.02 1747.98 2252.02 1747.98 2252.02 1.28052e+08 0.1
Loop time of 9.35928 on 4 procs for 100000 steps with 1000 atoms

unfix 4

fix 5 all npt temp 300 300 $(100.0*dt) iso 1.0 1.0 $(1000.0*dt)
fix 5 all npt temp 300 300 10 iso 1.0 1.0 $(1000.0*dt)
fix 5 all npt temp 300 300 10 iso 1.0 1.0 100

run 300000
Generated 0 of 1 mixed pair_coeff terms from geometric mixing rule
Step          Temp          Press          PotEng        Density         KinEng         TotEng           Lx             Ly             Lz            Xlo            Xhi            Ylo            Yhi            Zlo            Zhi           Volume           Dt            Time           CPU           T/CPU          S/CPU         CPULeft
41410000   5221.4769      965.33787     -5130999.3      2.8768963      15548.667     -5115450.6      504.03661      504.03661      504.03661      1747.9817      2252.0183      1747.9817      2252.0183      1747.9817      2252.0183      1.2805196e+08  0.1            4790000        0              0              0              0
Averages over the last 751 of 1501 rows, steps 41560000 to 41710000:
Temp Press PotEng Density KinEng TotEng Lx Ly Lz Xlo Xhi Ylo Yhi Zlo Zhi Volume Dt
304.731 1.2185 -5.25413e+06 2.86642 907.438 -5.25322e+06 504.65 504.65 504.65 1747.67 2252.33 1747.67 2252.33 1747.67 2252.33 1.2852e+08 0.1
Loop time of 33.3586 on 4 procs for 300000 steps with 1000 atoms

# run_style
run_style verlet

# write restart
write_restart ./pgnpmf/100/equpmf59.res
System init for write_restart ...
Generated 0 of 1 mixed pair_coeff terms from geometric mixing rule
