LAMMPS (23 Jun 2022 - Update 1)
# Read restart
read_restart ./pgnpmf/100/equpmf7.res
Reading restart file ...
  restart file = 23 Jun 2022, LAMMPS = 23 Jun 2022
  restoring atom style atomic from restart
  orthogonal box = (1612.5556 1612.5556 1612.5556) to (2387.4444 2387.4444 2387.4444)
  restoring pair style table from restart
  1000 atoms
  read_restart CPU = 0.009 seconds

# Settings

pair_style table spline 9941

pair_coeff 1 1 ./pgnpmf/N20.txt DE_GNP 75.6
pair_coeff 2 2 ./pgnpmf/N100.txt DE_GNP 115.92
pair_coeff 1 2 ./pgnpmf/mixed_potential.txt DE_GNP 95.66

#Neigh_list Calc Frequency

neigh_modify delay 0 every 1 check yes

# Saving Frequency (50 frames)

variable ts_save equal 5000

# Dump
#dump_modify 1 first no sort id
dump 2 all cfg 50000 ./pgnpmf/100/equilibration/trajectory/dumpgen.tens_*.cfg mass type xs ys zs fx fy fz
dump_modify 2 element N20 N100

# thermo_style
thermo_style custom step temp press pe density ke etotal lx ly lz xlo xhi ylo yhi zlo zhi vol dt time cpu tpcpu spcpu cpuremain

# run info
timestep 0.1
thermo 200

# fix

fix 1 all momentum 1000 linear 1 1 1 angular
variable T equal 300
fix 2 all nvt temp 300 370000 100.0

run 100000
Generated 0 of 1 mixed pair_coeff terms from geometric mixing rule
Unused restart file global fix info:
  fix style: npt, fix ID: 5
  update every 1 steps, delay 0 steps, check yes
Step          Temp          Press          PotEng        Density         KinEng         TotEng           Lx             Ly             Lz            Xlo            Xhi            Ylo            Yhi            Zlo            Zhi           Volume           Dt            Time           CPU           T/CPU          S/CPU         CPULeft
5310000   307.62908      1.5786989     -1420857.2      0.7917577      916.06688     -1419941.2      774.8888       774.8888       774.8888       1612.5556      2387.4444      1612.5556      2387.4444      1612.5556      2387.4444      4.6528404e+08  0.1            1180000        0              0              0              0
Averages over the last 251 of 501 rows, steps 5360000 to 5410000:
Temp Press PotEng Density KinEng TotEng Lx Ly Lz Xlo Xhi Ylo Yhi Zlo Zhi Volume Dt
276988 180.356 -1.35154e+06 0.791758 824824 -526714 774.889 774.889 774.889 1612.56 2387.44 1612.56 2387.44 1612.56 2387.44 4.65284e+08 0.1
Loop time of 6.36385 on 4 procs for 100000 steps with 1000 atoms

unfix 2

fix 3 all nvt temp 370000 370000 $(100.0*dt) #iso 1.0 1.0 $(1000.0*dt)
fix 3 all nvt temp 370000 370000 10

run 200000
Generated 0 of 1 mixed pair_coeff terms from geometric mixing rule
Step          Temp          Press          PotEng        Density         KinEng         TotEng           Lx             Ly             Lz            Xlo            Xhi            Ylo            Yhi            Zlo            Zhi           Volume           Dt            Time           CPU           T/CPU          S/CPU         CPULeft
5410000   369559.74      243.02282     -1340503.6      0.7917577      1100485.8     -240017.84      774.8888       774.8888       774.8888       1612.5556      2387.4444      1612.5556      2387.4444      1612.5556      2387.4444      4.6528404e+08  0.1            1190000        0              0              0              0
Averages over the last 501 of 1001 rows, steps 5510000 to 5610000:
Temp Press PotEng Density KinEng TotEng Lx Ly Lz Xlo Xhi Ylo Yhi Zlo Zhi Volume Dt
369981 162.678 -1.2353e+06 0.791758 1.10174e+06 -133558 774.889 774.889 774.889 1612.56 2387.44 1612.56 2387.44 1612.56 2387.44 4.65284e+08 0.1
Loop time of 12.4431 on 4 procs for 200000 steps with 1000 atoms

unfix 3

fix 4 all nvt temp 370000 300 100.0

run 100000
Generated 0 of 1 mixed pair_coeff terms from geometric mixing rule
Step          Temp          Press          PotEng        Density         KinEng         TotEng           Lx             Ly             Lz            Xlo            Xhi            Ylo            Yhi            Zlo            Zhi           Volume           Dt            Time           CPU           T/CPU          S/CPU         CPULeft
5610000   360786.22      126.5938      -1254073.2      0.7917577      1074359.7     -179713.43      774.8888       774.8888       774.8888       1612.5556      2387.4444      1612.5556      2387.4444      1612.5556      2387.4444      4.6528404e+08  0.1            1210000        0              0              0              0
Averages over the last 251 of 501 rows, steps 5660000 to 5710000:
Temp Press PotEng Density KinEng TotEng Lx Ly Lz Xlo Xhi Ylo Yhi Zlo Zhi Volume Dt
94410.7 -44.6717 -1.29187e+06 0.791758 281139 -1.01073e+06 774.889 774.889 774.889 1612.56 2387.44 1612.56 2387.44 1612.56 2387.44 4.65284e+08 0.1
Loop time of 6.10642 on 4 procs for 100000 steps with 1000 atoms

unfix 4

fix 5 all npt temp 300 300 $(100.0*dt) iso 1.0 1.0 $(1000.0*dt)
fix 5 all npt temp 300 300 10 iso 1.0 1.0 $(1000.0*dt)
fix 5 all npt temp 300 300 10 iso 1.0 1.0 100

run 300000
Generated 0 of 1 mixed pair_coeff terms from geometric mixing rule
Step          Temp          Press          PotEng        Density         KinEng         TotEng           Lx             Ly             Lz            Xlo            Xhi            Ylo            Yhi            Zlo            Zhi           Volume           Dt            Time           CPU           T/CPU          S/CPU         CPULeft
5710000   4364.1692     -109.88982     -1319869        0.7917577      12995.751     -1306873.3      774.8888       774.8888       774.8888       1612.5556      2387.4444      1612.5556      2387.4444      1612.5556      2387.4444      4.6528404e+08  0.1            1220000        0              0              0              0
Averages over the last 751 of 1501 rows, steps 5860000 to 6010000:
Temp Press PotEng Density KinEng TotEng Lx Ly Lz Xlo Xhi Ylo Yhi Zlo Zhi Volume Dt
309.809 0.985536 -1.65282e+06 0.936813 922.559 -1.6519e+06 732.68 732.68 732.68 1633.66 2366.34 1633.66 2366.34 1633.66 2366.34 3.93356e+08 0.1
Loop time of 24.7515 on 4 procs for 300000 steps with 1000 atoms

# run_style
run_style verlet

# write restart
write_restart ./pgnpmf/100/equpmf8.res
System init for write_restart ...
Generated 0 of 1 mixed pair_coeff terms from geometric mixing rule
