LAMMPS (23 Jun 2022 - Update 1)
# Read restart
read_restart ./pgnpmf/100/equpmf13.res
Reading restart file ...
  restart file = 23 Jun 2022, LAMMPS = 23 Jun 2022
  restoring atom style atomic from restart
  orthogonal box = (1717.3817 1717.3817 1717.3817) to (2282.6183 2282.6183 2282.6183)
  restoring pair style table from restart
  1000 atoms
  read_restart CPU = 0.010 seconds

# Settings

pair_style table spline 9941

pair_coeff 1 1 ./pgnpmf/N20.txt DE_GNP 75.6
pair_coeff 2 2 ./pgnpmf/N100.txt DE_GNP 115.92
pair_coeff 1 2 ./pgnpmf/mixed_potential.txt DE_GNP 95.66

#Neigh_list Calc Frequency

neigh_modify delay 0 every 1 check yes

# Saving Frequency (50 frames)

variable ts_save equal 5000

# Dump
#dump_modify 1 first no sort id
dump 2 all cfg 50000 ./pgnpmf/100/equilibration/trajectory/dumpgen.tens_*.cfg mass type xs ys zs fx fy fz
dump_modify 2 element N20 N100

# thermo_style
thermo_style custom step temp press pe density ke etotal lx ly lz xlo xhi ylo yhi zlo zhi vol dt time cpu tpcpu spcpu cpuremain

# run info
timestep 0.1
thermo 200

# fix

fix 1 all momentum 1000 linear 1 1 1 angular
variable T equal 300
fix 2 all nvt temp 300 370000 100.0

run 100000
Generated 0 of 1 mixed pair_coeff terms from geometric mixing rule
Unused restart file global fix info:
  fix style: npt, fix ID: 5
  update every 1 steps, delay 0 steps, check yes
Step          Temp          Press          PotEng        Density         KinEng         TotEng           Lx             Ly             Lz            Xlo            Xhi            Ylo            Yhi            Zlo            Zhi           Volume           Dt            Time           CPU           T/CPU          S/CPU         CPULeft
9510000   310.0962      -2.7345705     -3620959.1      2.0399504      923.41352     -3620035.7      565.2366       565.2366       565.2366       1717.3817      2282.6183      1717.3817      2282.6183      1717.3817      2282.6183      1.8058881e+08  0.1            1600000        0              0              0              0
Averages over the last 251 of 501 rows, steps 9560000 to 9610000:
Temp Press PotEng Density KinEng TotEng Lx Ly Lz Xlo Xhi Ylo Yhi Zlo Zhi Volume Dt
277266 432.769 -3.5153e+06 2.03995 825652 -2.68965e+06 565.237 565.237 565.237 1717.38 2282.62 1717.38 2282.62 1717.38 2282.62 1.80589e+08 0.1
Loop time of 8.39142 on 4 procs for 100000 steps with 1000 atoms

unfix 2

fix 3 all nvt temp 370000 370000 $(100.0*dt) #iso 1.0 1.0 $(1000.0*dt)
fix 3 all nvt temp 370000 370000 10

run 200000
Generated 0 of 1 mixed pair_coeff terms from geometric mixing rule
Step          Temp          Press          PotEng        Density         KinEng         TotEng           Lx             Ly             Lz            Xlo            Xhi            Ylo            Yhi            Zlo            Zhi           Volume           Dt            Time           CPU           T/CPU          S/CPU         CPULeft
9610000   364275.74      1055.1874     -3410578.9      2.0399504      1084751       -2325827.9      565.2366       565.2366       565.2366       1717.3817      2282.6183      1717.3817      2282.6183      1717.3817      2282.6183      1.8058881e+08  0.1            1610000        0              0              0              0
Averages over the last 501 of 1001 rows, steps 9710000 to 9810000:
Temp Press PotEng Density KinEng TotEng Lx Ly Lz Xlo Xhi Ylo Yhi Zlo Zhi Volume Dt
369862 938.022 -3.33994e+06 2.03995 1.10139e+06 -2.23855e+06 565.237 565.237 565.237 1717.38 2282.62 1717.38 2282.62 1717.38 2282.62 1.80589e+08 0.1
Loop time of 16.9478 on 4 procs for 200000 steps with 1000 atoms

unfix 3

fix 4 all nvt temp 370000 300 100.0

run 100000
Generated 0 of 1 mixed pair_coeff terms from geometric mixing rule
Step          Temp          Press          PotEng        Density         KinEng         TotEng           Lx             Ly             Lz            Xlo            Xhi            Ylo            Yhi            Zlo            Zhi           Volume           Dt            Time           CPU           T/CPU          S/CPU         CPULeft
9810000   363524.14      879.46399     -3327006.7      2.0399504      1082512.8     -2244493.9      565.2366       565.2366       565.2366       1717.3817      2282.6183      1717.3817      2282.6183      1717.3817      2282.6183      1.8058881e+08  0.1            1630000        0              0              0              0
Averages over the last 251 of 501 rows, steps 9860000 to 9910000:
Temp Press PotEng Density KinEng TotEng Lx Ly Lz Xlo Xhi Ylo Yhi Zlo Zhi Volume Dt
95367.7 -305.156 -3.51053e+06 2.03995 283989 -3.22654e+06 565.237 565.237 565.237 1717.38 2282.62 1717.38 2282.62 1717.38 2282.62 1.80589e+08 0.1
Loop time of 8.3328 on 4 procs for 100000 steps with 1000 atoms

unfix 4

fix 5 all npt temp 300 300 $(100.0*dt) iso 1.0 1.0 $(1000.0*dt)
fix 5 all npt temp 300 300 10 iso 1.0 1.0 $(1000.0*dt)
fix 5 all npt temp 300 300 10 iso 1.0 1.0 100

run 300000
Generated 0 of 1 mixed pair_coeff terms from geometric mixing rule
Step          Temp          Press          PotEng        Density         KinEng         TotEng           Lx             Ly             Lz            Xlo            Xhi            Ylo            Yhi            Zlo            Zhi           Volume           Dt            Time           CPU           T/CPU          S/CPU         CPULeft
9910000   4706.86       -766.64345     -3583673.3      2.0399504      14016.225     -3569657.1      565.2366       565.2366       565.2366       1717.3817      2282.6183      1717.3817      2282.6183      1717.3817      2282.6183      1.8058881e+08  0.1            1640000        0              0              0              0
Averages over the last 751 of 1501 rows, steps 10060000 to 10210000:
Temp Press PotEng Density KinEng TotEng Lx Ly Lz Xlo Xhi Ylo Yhi Zlo Zhi Volume Dt
311.295 0.915718 -3.98446e+06 2.24726 926.982 -3.98353e+06 547.299 547.299 547.299 1726.35 2273.65 1726.35 2273.65 1726.35 2273.65 1.63939e+08 0.1
Loop time of 30.7527 on 4 procs for 300000 steps with 1000 atoms

# run_style
run_style verlet

# write restart
write_restart ./pgnpmf/100/equpmf14.res
System init for write_restart ...
Generated 0 of 1 mixed pair_coeff terms from geometric mixing rule
