LAMMPS (23 Jun 2022 - Update 1)
# Read restart
read_restart ./pgnpmf/100/equpmf61.res
Reading restart file ...
  restart file = 23 Jun 2022, LAMMPS = 23 Jun 2022
  restoring atom style atomic from restart
  orthogonal box = (1747.9561 1747.9561 1747.9561) to (2252.0439 2252.0439 2252.0439)
  restoring pair style table from restart
  1000 atoms
  read_restart CPU = 0.011 seconds

# Settings

pair_style table spline 9941

pair_coeff 1 1 ./pgnpmf/N20.txt DE_GNP 75.6
pair_coeff 2 2 ./pgnpmf/N100.txt DE_GNP 115.92
pair_coeff 1 2 ./pgnpmf/mixed_potential.txt DE_GNP 95.66

#Neigh_list Calc Frequency

neigh_modify delay 0 every 1 check yes

# Saving Frequency (50 frames)

variable ts_save equal 5000

# Dump
#dump_modify 1 first no sort id
dump 2 all cfg 50000 ./pgnpmf/100/equilibration/trajectory/dumpgen.tens_*.cfg mass type xs ys zs fx fy fz
dump_modify 2 element N20 N100

# thermo_style
thermo_style custom step temp press pe density ke etotal lx ly lz xlo xhi ylo yhi zlo zhi vol dt time cpu tpcpu spcpu cpuremain

# run info
timestep 0.1
thermo 200

# fix

fix 1 all momentum 1000 linear 1 1 1 angular
variable T equal 300
fix 2 all nvt temp 300 370000 100.0

run 100000
Generated 0 of 1 mixed pair_coeff terms from geometric mixing rule
Unused restart file global fix info:
  fix style: npt, fix ID: 5
  update every 1 steps, delay 0 steps, check yes
Step          Temp          Press          PotEng        Density         KinEng         TotEng           Lx             Ly             Lz            Xlo            Xhi            Ylo            Yhi            Zlo            Zhi           Volume           Dt            Time           CPU           T/CPU          S/CPU         CPULeft
43110000   303.25981     -11.747222     -5293301.4      2.8760186      903.05593     -5292398.3      504.08788      504.08788      504.08788      1747.9561      2252.0439      1747.9561      2252.0439      1747.9561      2252.0439      1.2809104e+08  0.1            4960000        0              0              0              0
Averages over the last 251 of 501 rows, steps 43160000 to 43210000:
Temp Press PotEng Density KinEng TotEng Lx Ly Lz Xlo Xhi Ylo Yhi Zlo Zhi Volume Dt
277602 2737.59 -4.87317e+06 2.87602 826650 -4.04652e+06 504.088 504.088 504.088 1747.96 2252.04 1747.96 2252.04 1747.96 2252.04 1.28091e+08 0.1
Loop time of 9.27771 on 4 procs for 100000 steps with 1000 atoms

unfix 2

fix 3 all nvt temp 370000 370000 $(100.0*dt) #iso 1.0 1.0 $(1000.0*dt)
fix 3 all nvt temp 370000 370000 10

run 200000
Generated 0 of 1 mixed pair_coeff terms from geometric mixing rule
Step          Temp          Press          PotEng        Density         KinEng         TotEng           Lx             Ly             Lz            Xlo            Xhi            Ylo            Yhi            Zlo            Zhi           Volume           Dt            Time           CPU           T/CPU          S/CPU         CPULeft
43210000   368523.37      4277.4897     -4612482.9      2.8760186      1097399.7     -3515083.3      504.08788      504.08788      504.08788      1747.9561      2252.0439      1747.9561      2252.0439      1747.9561      2252.0439      1.2809104e+08  0.1            4970000        0              0              0              0
Averages over the last 501 of 1001 rows, steps 43310000 to 43410000:
Temp Press PotEng Density KinEng TotEng Lx Ly Lz Xlo Xhi Ylo Yhi Zlo Zhi Volume Dt
370167 5005.4 -4.45193e+06 2.87602 1.10229e+06 -3.34963e+06 504.088 504.088 504.088 1747.96 2252.04 1747.96 2252.04 1747.96 2252.04 1.28091e+08 0.1
Loop time of 18.8028 on 4 procs for 200000 steps with 1000 atoms

unfix 3

fix 4 all nvt temp 370000 300 100.0

run 100000
Generated 0 of 1 mixed pair_coeff terms from geometric mixing rule
Step          Temp          Press          PotEng        Density         KinEng         TotEng           Lx             Ly             Lz            Xlo            Xhi            Ylo            Yhi            Zlo            Zhi           Volume           Dt            Time           CPU           T/CPU          S/CPU         CPULeft
43410000   366719.05      5168.0519     -4423933.5      2.8760186      1092026.7     -3331906.8      504.08788      504.08788      504.08788      1747.9561      2252.0439      1747.9561      2252.0439      1747.9561      2252.0439      1.2809104e+08  0.1            4990000        0              0              0              0
Averages over the last 251 of 501 rows, steps 43460000 to 43510000:
Temp Press PotEng Density KinEng TotEng Lx Ly Lz Xlo Xhi Ylo Yhi Zlo Zhi Volume Dt
96278.7 2005.18 -4.98172e+06 2.87602 286702 -4.69502e+06 504.088 504.088 504.088 1747.96 2252.04 1747.96 2252.04 1747.96 2252.04 1.28091e+08 0.1
Loop time of 9.29415 on 4 procs for 100000 steps with 1000 atoms

unfix 4

fix 5 all npt temp 300 300 $(100.0*dt) iso 1.0 1.0 $(1000.0*dt)
fix 5 all npt temp 300 300 10 iso 1.0 1.0 $(1000.0*dt)
fix 5 all npt temp 300 300 10 iso 1.0 1.0 100

run 300000
Generated 0 of 1 mixed pair_coeff terms from geometric mixing rule
Step          Temp          Press          PotEng        Density         KinEng         TotEng           Lx             Ly             Lz            Xlo            Xhi            Ylo            Yhi            Zlo            Zhi           Volume           Dt            Time           CPU           T/CPU          S/CPU         CPULeft
43510000   5209.2078      882.2126      -5157062        2.8760186      15512.131     -5141549.9      504.08788      504.08788      504.08788      1747.9561      2252.0439      1747.9561      2252.0439      1747.9561      2252.0439      1.2809104e+08  0.1            5000000        0              0              0              0
Averages over the last 751 of 1501 rows, steps 43660000 to 43810000:
Temp Press PotEng Density KinEng TotEng Lx Ly Lz Xlo Xhi Ylo Yhi Zlo Zhi Volume Dt
304.549 0.779543 -5.28108e+06 2.87112 906.894 -5.28017e+06 504.375 504.375 504.375 1747.81 2252.19 1747.81 2252.19 1747.81 2252.19 1.2831e+08 0.1
Loop time of 33.1987 on 4 procs for 300000 steps with 1000 atoms

# run_style
run_style verlet

# write restart
write_restart ./pgnpmf/100/equpmf62.res
System init for write_restart ...
Generated 0 of 1 mixed pair_coeff terms from geometric mixing rule
