LAMMPS (23 Jun 2022 - Update 1)
# Read restart
read_restart ./pgnpmf/82/equpmf33.res
Reading restart file ...
  restart file = 23 Jun 2022, LAMMPS = 23 Jun 2022
  restoring atom style atomic from restart
  orthogonal box = (1688.7817 1688.7817 1688.7817) to (2311.2183 2311.2183 2311.2183)
  restoring pair style table from restart
  1000 atoms
  read_restart CPU = 0.006 seconds

# Settings

pair_style table spline 9941

pair_coeff 1 1 ./pgnpmf/N20.txt DE_GNP 75.6
pair_coeff 2 2 ./pgnpmf/N100.txt DE_GNP 115.92
pair_coeff 1 2 ./pgnpmf/mixed_potential.txt DE_GNP 95.66

#Neigh_list Calc Frequency

neigh_modify delay 0 every 1 check yes

# Saving Frequency (50 frames)

variable ts_save equal 5000

variable nts equal 5000/0.25
variable medium equal 20000*3
variable long equal 20000*5

# Dump
#dump_modify 1 first no sort id
dump 2 all cfg 50000 ./pgnpmf/82/equilibration/trajectory/dumpequ.tens_*.cfg mass type xs ys zs fx fy fz
dump_modify 2 element N20 N100

# thermo_style
thermo_style custom step temp press pe density ke etotal lx ly lz xlo xhi ylo yhi zlo zhi vol dt time cpu tpcpu spcpu cpuremain

# run info
timestep 0.25
thermo 5000

# fix

fix 1 all momentum 1000 linear 1 1 1 angular
variable T equal 300
fix 2 all nvt temp 300 370000 100.0

run 20000
Generated 0 of 1 mixed pair_coeff terms from geometric mixing rule
Unused restart file global fix info:
  fix style: npt, fix ID: 5
  update every 1 steps, delay 0 steps, check yes
Step          Temp          Press          PotEng        Density         KinEng         TotEng           Lx             Ly             Lz            Xlo            Xhi            Ylo            Yhi            Zlo            Zhi           Volume           Dt            Time           CPU           T/CPU          S/CPU         CPULeft
6660000   338.18231      1.3463338     -12368097       1.8033683      1007.0492     -12367090       622.43653      622.43653      622.43653      1688.7817      2311.2183      1688.7817      2311.2183      1688.7817      2311.2183      2.4114886e+08  0.25           1710000        0              0              0              0
Loop time of 1.37838 on 4 procs for 20000 steps with 1000 atoms

unfix 2

fix 3 all nvt temp 370000 370000 $(100.0*dt) #iso 1.0 1.0 $(1000.0*dt)
fix 3 all nvt temp 370000 370000 25

run 100000
Generated 0 of 1 mixed pair_coeff terms from geometric mixing rule
Step          Temp          Press          PotEng        Density         KinEng         TotEng           Lx             Ly             Lz            Xlo            Xhi            Ylo            Yhi            Zlo            Zhi           Volume           Dt            Time           CPU           T/CPU          S/CPU         CPULeft
6680000   367355.06      163.51816     -12271232       1.8033683      1093920.6     -11177311       622.43653      622.43653      622.43653      1688.7817      2311.2183      1688.7817      2311.2183      1688.7817      2311.2183      2.4114886e+08  0.25           1715000        0              0              0              0
Averages over the last 11 of 21 rows, steps 6730000 to 6780000:
Temp Press PotEng Density KinEng TotEng Lx Ly Lz Xlo Xhi Ylo Yhi Zlo Zhi Volume Dt
370439 500.397 -1.21055e+07 1.80337 1.1031e+06 -1.10024e+07 622.437 622.437 622.437 1688.78 2311.22 1688.78 2311.22 1688.78 2311.22 2.41149e+08 0.25
Loop time of 7.02205 on 4 procs for 100000 steps with 1000 atoms

unfix 3

fix 4 all nvt temp 370000 300 100.0

run 20000
Generated 0 of 1 mixed pair_coeff terms from geometric mixing rule
Step          Temp          Press          PotEng        Density         KinEng         TotEng           Lx             Ly             Lz            Xlo            Xhi            Ylo            Yhi            Zlo            Zhi           Volume           Dt            Time           CPU           T/CPU          S/CPU         CPULeft
6780000   377250.01      467.38544     -12134047       1.8033683      1123386.1     -11010660       622.43653      622.43653      622.43653      1688.7817      2311.2183      1688.7817      2311.2183      1688.7817      2311.2183      2.4114886e+08  0.25           1740000        0              0              0              0
Loop time of 1.39279 on 4 procs for 20000 steps with 1000 atoms

unfix 4

fix 5 all npt temp 300 300 $(100.0*dt) iso 1.0 1.0 $(1000.0*dt)
fix 5 all npt temp 300 300 25 iso 1.0 1.0 $(1000.0*dt)
fix 5 all npt temp 300 300 25 iso 1.0 1.0 250

run 60000
Generated 0 of 1 mixed pair_coeff terms from geometric mixing rule
Step          Temp          Press          PotEng        Density         KinEng         TotEng           Lx             Ly             Lz            Xlo            Xhi            Ylo            Yhi            Zlo            Zhi           Volume           Dt            Time           CPU           T/CPU          S/CPU         CPULeft
6800000   8971.8406     -621.10166     -12386399       1.8033683      26716.609     -12359683       622.43653      622.43653      622.43653      1688.7817      2311.2183      1688.7817      2311.2183      1688.7817      2311.2183      2.4114886e+08  0.25           1745000        0              0              0              0
Averages over the last 7 of 13 rows, steps 6830000 to 6860000:
Temp Press PotEng Density KinEng TotEng Lx Ly Lz Xlo Xhi Ylo Yhi Zlo Zhi Volume Dt
337.882 0.665974 -1.27777e+07 1.88273 1006.16 -1.27767e+07 613.567 613.567 613.567 1693.22 2306.78 1693.22 2306.78 1693.22 2306.78 2.30987e+08 0.25
Loop time of 5.0098 on 4 procs for 60000 steps with 1000 atoms

# run_style
run_style verlet

# write restart
write_restart ./pgnpmf/82/equpmf34.res
System init for write_restart ...
Generated 0 of 1 mixed pair_coeff terms from geometric mixing rule
