LAMMPS (23 Jun 2022 - Update 1)
# Read restart
read_restart ./pgnpmf/82/equpmf62.res
Reading restart file ...
  restart file = 23 Jun 2022, LAMMPS = 23 Jun 2022
  restoring atom style atomic from restart
  orthogonal box = (1712.4886 1712.4886 1712.4886) to (2287.5114 2287.5114 2287.5114)
  restoring pair style table from restart
  1000 atoms
  read_restart CPU = 0.005 seconds

# Settings

pair_style table spline 9941

pair_coeff 1 1 ./pgnpmf/N20.txt DE_GNP 75.6
pair_coeff 2 2 ./pgnpmf/N100.txt DE_GNP 115.92
pair_coeff 1 2 ./pgnpmf/mixed_potential.txt DE_GNP 95.66

#Neigh_list Calc Frequency

neigh_modify delay 0 every 1 check yes

# Saving Frequency (50 frames)

variable ts_save equal 5000

variable nts equal 5000/0.25
variable medium equal 20000*3
variable long equal 20000*5

# Dump
#dump_modify 1 first no sort id
dump 2 all cfg 50000 ./pgnpmf/82/equilibration/trajectory/dumpequ.tens_*.cfg mass type xs ys zs fx fy fz
dump_modify 2 element N20 N100

# thermo_style
thermo_style custom step temp press pe density ke etotal lx ly lz xlo xhi ylo yhi zlo zhi vol dt time cpu tpcpu spcpu cpuremain

# run info
timestep 0.25
thermo 5000

# fix

fix 1 all momentum 1000 linear 1 1 1 angular
variable T equal 300
fix 2 all nvt temp 300 370000 100.0

run 20000
Generated 0 of 1 mixed pair_coeff terms from geometric mixing rule
Unused restart file global fix info:
  fix style: npt, fix ID: 5
  update every 1 steps, delay 0 steps, check yes
Step          Temp          Press          PotEng        Density         KinEng         TotEng           Lx             Ly             Lz            Xlo            Xhi            Ylo            Yhi            Zlo            Zhi           Volume           Dt            Time           CPU           T/CPU          S/CPU         CPULeft
12460000   326.48363      0.6863046     -15333838       2.2872534      972.2125      -15332866       575.02287      575.02287      575.02287      1712.4886      2287.5114      1712.4886      2287.5114      1712.4886      2287.5114      1.9013206e+08  0.25           3160000        0              0              0              0
Loop time of 1.60059 on 4 procs for 20000 steps with 1000 atoms

unfix 2

fix 3 all nvt temp 370000 370000 $(100.0*dt) #iso 1.0 1.0 $(1000.0*dt)
fix 3 all nvt temp 370000 370000 25

run 100000
Generated 0 of 1 mixed pair_coeff terms from geometric mixing rule
Step          Temp          Press          PotEng        Density         KinEng         TotEng           Lx             Ly             Lz            Xlo            Xhi            Ylo            Yhi            Zlo            Zhi           Volume           Dt            Time           CPU           T/CPU          S/CPU         CPULeft
12480000   371987.13      1650.4992     -14952377       2.2872534      1107714.2     -13844663       575.02287      575.02287      575.02287      1712.4886      2287.5114      1712.4886      2287.5114      1712.4886      2287.5114      1.9013206e+08  0.25           3165000        0              0              0              0
Averages over the last 11 of 21 rows, steps 12530000 to 12580000:
Temp Press PotEng Density KinEng TotEng Lx Ly Lz Xlo Xhi Ylo Yhi Zlo Zhi Volume Dt
363149 2848.08 -1.45849e+07 2.28725 1.0814e+06 -1.35035e+07 575.023 575.023 575.023 1712.49 2287.51 1712.49 2287.51 1712.49 2287.51 1.90132e+08 0.25
Loop time of 8.19481 on 4 procs for 100000 steps with 1000 atoms

unfix 3

fix 4 all nvt temp 370000 300 100.0

run 20000
Generated 0 of 1 mixed pair_coeff terms from geometric mixing rule
Step          Temp          Press          PotEng        Density         KinEng         TotEng           Lx             Ly             Lz            Xlo            Xhi            Ylo            Yhi            Zlo            Zhi           Volume           Dt            Time           CPU           T/CPU          S/CPU         CPULeft
12580000   380080.28      2695.1537     -14619155       2.2872534      1131814.2     -13487341       575.02287      575.02287      575.02287      1712.4886      2287.5114      1712.4886      2287.5114      1712.4886      2287.5114      1.9013206e+08  0.25           3190000        0              0              0              0
Loop time of 1.62929 on 4 procs for 20000 steps with 1000 atoms

unfix 4

fix 5 all npt temp 300 300 $(100.0*dt) iso 1.0 1.0 $(1000.0*dt)
fix 5 all npt temp 300 300 25 iso 1.0 1.0 $(1000.0*dt)
fix 5 all npt temp 300 300 25 iso 1.0 1.0 250

run 60000
Generated 0 of 1 mixed pair_coeff terms from geometric mixing rule
Step          Temp          Press          PotEng        Density         KinEng         TotEng           Lx             Ly             Lz            Xlo            Xhi            Ylo            Yhi            Zlo            Zhi           Volume           Dt            Time           CPU           T/CPU          S/CPU         CPULeft
12600000   9739.7695      571.05384     -15146236       2.2872534      29003.37      -15117233       575.02287      575.02287      575.02287      1712.4886      2287.5114      1712.4886      2287.5114      1712.4886      2287.5114      1.9013206e+08  0.25           3195000        0              0              0              0
Averages over the last 7 of 13 rows, steps 12630000 to 12660000:
Temp Press PotEng Density KinEng TotEng Lx Ly Lz Xlo Xhi Ylo Yhi Zlo Zhi Volume Dt
329.699 1.60295 -1.52658e+07 2.28748 981.789 -1.52648e+07 575.005 575.005 575.005 1712.5 2287.5 1712.5 2287.5 1712.5 2287.5 1.90114e+08 0.25
Loop time of 5.67495 on 4 procs for 60000 steps with 1000 atoms

# run_style
run_style verlet

# write restart
write_restart ./pgnpmf/82/equpmf63.res
System init for write_restart ...
Generated 0 of 1 mixed pair_coeff terms from geometric mixing rule
