LAMMPS (23 Jun 2022 - Update 1)
# Read restart
read_restart ./pgnpmf/82/equpmf34.res
Reading restart file ...
  restart file = 23 Jun 2022, LAMMPS = 23 Jun 2022
  restoring atom style atomic from restart
  orthogonal box = (1693.7537 1693.7537 1693.7537) to (2306.2463 2306.2463 2306.2463)
  restoring pair style table from restart
  1000 atoms
  read_restart CPU = 0.007 seconds

# Settings

pair_style table spline 9941

pair_coeff 1 1 ./pgnpmf/N20.txt DE_GNP 75.6
pair_coeff 2 2 ./pgnpmf/N100.txt DE_GNP 115.92
pair_coeff 1 2 ./pgnpmf/mixed_potential.txt DE_GNP 95.66

#Neigh_list Calc Frequency

neigh_modify delay 0 every 1 check yes

# Saving Frequency (50 frames)

variable ts_save equal 5000

variable nts equal 5000/0.25
variable medium equal 20000*3
variable long equal 20000*5

# Dump
#dump_modify 1 first no sort id
dump 2 all cfg 50000 ./pgnpmf/82/equilibration/trajectory/dumpequ.tens_*.cfg mass type xs ys zs fx fy fz
dump_modify 2 element N20 N100

# thermo_style
thermo_style custom step temp press pe density ke etotal lx ly lz xlo xhi ylo yhi zlo zhi vol dt time cpu tpcpu spcpu cpuremain

# run info
timestep 0.25
thermo 5000

# fix

fix 1 all momentum 1000 linear 1 1 1 angular
variable T equal 300
fix 2 all nvt temp 300 370000 100.0

run 20000
Generated 0 of 1 mixed pair_coeff terms from geometric mixing rule
Unused restart file global fix info:
  fix style: npt, fix ID: 5
  update every 1 steps, delay 0 steps, check yes
Step          Temp          Press          PotEng        Density         KinEng         TotEng           Lx             Ly             Lz            Xlo            Xhi            Ylo            Yhi            Zlo            Zhi           Volume           Dt            Time           CPU           T/CPU          S/CPU         CPULeft
6860000   336.40921     -1.7824578     -12841779       1.892636       1001.7692     -12840777       612.4926       612.4926       612.4926       1693.7537      2306.2463      1693.7537      2306.2463      1693.7537      2306.2463      2.2977487e+08  0.25           1760000        0              0              0              0
Loop time of 1.41771 on 4 procs for 20000 steps with 1000 atoms

unfix 2

fix 3 all nvt temp 370000 370000 $(100.0*dt) #iso 1.0 1.0 $(1000.0*dt)
fix 3 all nvt temp 370000 370000 25

run 100000
Generated 0 of 1 mixed pair_coeff terms from geometric mixing rule
Step          Temp          Press          PotEng        Density         KinEng         TotEng           Lx             Ly             Lz            Xlo            Xhi            Ylo            Yhi            Zlo            Zhi           Volume           Dt            Time           CPU           T/CPU          S/CPU         CPULeft
6880000   367982.36      209.43092     -12723106       1.892636       1095788.6     -11627318       612.4926       612.4926       612.4926       1693.7537      2306.2463      1693.7537      2306.2463      1693.7537      2306.2463      2.2977487e+08  0.25           1765000        0              0              0              0
Averages over the last 11 of 21 rows, steps 6930000 to 6980000:
Temp Press PotEng Density KinEng TotEng Lx Ly Lz Xlo Xhi Ylo Yhi Zlo Zhi Volume Dt
362844 645.318 -1.2633e+07 1.89264 1.08049e+06 -1.15526e+07 612.493 612.493 612.493 1693.75 2306.25 1693.75 2306.25 1693.75 2306.25 2.29775e+08 0.25
Loop time of 7.26262 on 4 procs for 100000 steps with 1000 atoms

unfix 3

fix 4 all nvt temp 370000 300 100.0

run 20000
Generated 0 of 1 mixed pair_coeff terms from geometric mixing rule
Step          Temp          Press          PotEng        Density         KinEng         TotEng           Lx             Ly             Lz            Xlo            Xhi            Ylo            Yhi            Zlo            Zhi           Volume           Dt            Time           CPU           T/CPU          S/CPU         CPULeft
6980000   354768.36      749.37842     -12592833       1.892636       1056439.6     -11536393       612.4926       612.4926       612.4926       1693.7537      2306.2463      1693.7537      2306.2463      1693.7537      2306.2463      2.2977487e+08  0.25           1790000        0              0              0              0
Loop time of 1.44878 on 4 procs for 20000 steps with 1000 atoms

unfix 4

fix 5 all npt temp 300 300 $(100.0*dt) iso 1.0 1.0 $(1000.0*dt)
fix 5 all npt temp 300 300 25 iso 1.0 1.0 $(1000.0*dt)
fix 5 all npt temp 300 300 25 iso 1.0 1.0 250

run 60000
Generated 0 of 1 mixed pair_coeff terms from geometric mixing rule
Step          Temp          Press          PotEng        Density         KinEng         TotEng           Lx             Ly             Lz            Xlo            Xhi            Ylo            Yhi            Zlo            Zhi           Volume           Dt            Time           CPU           T/CPU          S/CPU         CPULeft
7000000   9076.8651     -620.72937     -12976369       1.892636       27029.354     -12949339       612.4926       612.4926       612.4926       1693.7537      2306.2463      1693.7537      2306.2463      1693.7537      2306.2463      2.2977487e+08  0.25           1795000        0              0              0              0
Averages over the last 7 of 13 rows, steps 7030000 to 7060000:
Temp Press PotEng Density KinEng TotEng Lx Ly Lz Xlo Xhi Ylo Yhi Zlo Zhi Volume Dt
338.775 -0.403712 -1.33528e+07 1.96999 1008.81 -1.33518e+07 604.37 604.37 604.37 1697.82 2302.18 1697.82 2302.18 1697.82 2302.18 2.20755e+08 0.25
Loop time of 5.16307 on 4 procs for 60000 steps with 1000 atoms

# run_style
run_style verlet

# write restart
write_restart ./pgnpmf/82/equpmf35.res
System init for write_restart ...
Generated 0 of 1 mixed pair_coeff terms from geometric mixing rule
