LAMMPS (23 Jun 2022 - Update 1)
# Read restart
read_restart ./pgnpmf/82/equpmf32.res
Reading restart file ...
  restart file = 23 Jun 2022, LAMMPS = 23 Jun 2022
  restoring atom style atomic from restart
  orthogonal box = (1683.1814 1683.1814 1683.1814) to (2316.8186 2316.8186 2316.8186)
  restoring pair style table from restart
  1000 atoms
  read_restart CPU = 0.006 seconds

# Settings

pair_style table spline 9941

pair_coeff 1 1 ./pgnpmf/N20.txt DE_GNP 75.6
pair_coeff 2 2 ./pgnpmf/N100.txt DE_GNP 115.92
pair_coeff 1 2 ./pgnpmf/mixed_potential.txt DE_GNP 95.66

#Neigh_list Calc Frequency

neigh_modify delay 0 every 1 check yes

# Saving Frequency (50 frames)

variable ts_save equal 5000

variable nts equal 5000/0.25
variable medium equal 20000*3
variable long equal 20000*5

# Dump
#dump_modify 1 first no sort id
dump 2 all cfg 50000 ./pgnpmf/82/equilibration/trajectory/dumpequ.tens_*.cfg mass type xs ys zs fx fy fz
dump_modify 2 element N20 N100

# thermo_style
thermo_style custom step temp press pe density ke etotal lx ly lz xlo xhi ylo yhi zlo zhi vol dt time cpu tpcpu spcpu cpuremain

# run info
timestep 0.25
thermo 5000

# fix

fix 1 all momentum 1000 linear 1 1 1 angular
variable T equal 300
fix 2 all nvt temp 300 370000 100.0

run 20000
Generated 0 of 1 mixed pair_coeff terms from geometric mixing rule
Unused restart file global fix info:
  fix style: npt, fix ID: 5
  update every 1 steps, delay 0 steps, check yes
Step          Temp          Press          PotEng        Density         KinEng         TotEng           Lx             Ly             Lz            Xlo            Xhi            Ylo            Yhi            Zlo            Zhi           Volume           Dt            Time           CPU           T/CPU          S/CPU         CPULeft
6460000   340.7307       1.7088128     -11901598       1.7094157      1014.6378     -11900583       633.63717      633.63717      633.63717      1683.1814      2316.8186      1683.1814      2316.8186      1683.1814      2316.8186      2.5440283e+08  0.25           1660000        0              0              0              0
Loop time of 1.38452 on 4 procs for 20000 steps with 1000 atoms

unfix 2

fix 3 all nvt temp 370000 370000 $(100.0*dt) #iso 1.0 1.0 $(1000.0*dt)
fix 3 all nvt temp 370000 370000 25

run 100000
Generated 0 of 1 mixed pair_coeff terms from geometric mixing rule
Step          Temp          Press          PotEng        Density         KinEng         TotEng           Lx             Ly             Lz            Xlo            Xhi            Ylo            Yhi            Zlo            Zhi           Volume           Dt            Time           CPU           T/CPU          S/CPU         CPULeft
6480000   367064.57      120.48879     -11770189       1.7094157      1093055.6     -10677134       633.63717      633.63717      633.63717      1683.1814      2316.8186      1683.1814      2316.8186      1683.1814      2316.8186      2.5440283e+08  0.25           1665000        0              0              0              0
Averages over the last 11 of 21 rows, steps 6530000 to 6580000:
Temp Press PotEng Density KinEng TotEng Lx Ly Lz Xlo Xhi Ylo Yhi Zlo Zhi Volume Dt
377648 429.735 -1.16626e+07 1.70942 1.12457e+06 -1.0538e+07 633.637 633.637 633.637 1683.18 2316.82 1683.18 2316.82 1683.18 2316.82 2.54403e+08 0.25
Loop time of 6.9411 on 4 procs for 100000 steps with 1000 atoms

unfix 3

fix 4 all nvt temp 370000 300 100.0

run 20000
Generated 0 of 1 mixed pair_coeff terms from geometric mixing rule
Step          Temp          Press          PotEng        Density         KinEng         TotEng           Lx             Ly             Lz            Xlo            Xhi            Ylo            Yhi            Zlo            Zhi           Volume           Dt            Time           CPU           T/CPU          S/CPU         CPULeft
6580000   362054.23      434.42143     -11645381       1.7094157      1078135.7     -10567245       633.63717      633.63717      633.63717      1683.1814      2316.8186      1683.1814      2316.8186      1683.1814      2316.8186      2.5440283e+08  0.25           1690000        0              0              0              0
Loop time of 1.37615 on 4 procs for 20000 steps with 1000 atoms

unfix 4

fix 5 all npt temp 300 300 $(100.0*dt) iso 1.0 1.0 $(1000.0*dt)
fix 5 all npt temp 300 300 25 iso 1.0 1.0 $(1000.0*dt)
fix 5 all npt temp 300 300 25 iso 1.0 1.0 250

run 60000
Generated 0 of 1 mixed pair_coeff terms from geometric mixing rule
Step          Temp          Press          PotEng        Density         KinEng         TotEng           Lx             Ly             Lz            Xlo            Xhi            Ylo            Yhi            Zlo            Zhi           Volume           Dt            Time           CPU           T/CPU          S/CPU         CPULeft
6600000   8932.533      -582.20817     -11868257       1.7094157      26599.558     -11841657       633.63717      633.63717      633.63717      1683.1814      2316.8186      1683.1814      2316.8186      1683.1814      2316.8186      2.5440283e+08  0.25           1695000        0              0              0              0
Averages over the last 7 of 13 rows, steps 6630000 to 6660000:
Temp Press PotEng Density KinEng TotEng Lx Ly Lz Xlo Xhi Ylo Yhi Zlo Zhi Volume Dt
340.125 0.849209 -1.22986e+07 1.79283 1012.83 -1.22975e+07 623.656 623.656 623.656 1688.17 2311.83 1688.17 2311.83 1688.17 2311.83 2.4257e+08 0.25
Loop time of 5.011 on 4 procs for 60000 steps with 1000 atoms

# run_style
run_style verlet

# write restart
write_restart ./pgnpmf/82/equpmf33.res
System init for write_restart ...
Generated 0 of 1 mixed pair_coeff terms from geometric mixing rule
