LAMMPS (23 Jun 2022 - Update 1)
# Read restart
read_restart ./pgnpmf/82/equpmf3.res
Reading restart file ...
  restart file = 23 Jun 2022, LAMMPS = 23 Jun 2022
  restoring atom style atomic from restart
  orthogonal box = (686.22248 686.22248 686.22248) to (3313.7775 3313.7775 3313.7775)
  restoring pair style table from restart
  1000 atoms
  read_restart CPU = 0.005 seconds

# Settings

pair_style table spline 9941

pair_coeff 1 1 ./pgnpmf/N20.txt DE_GNP 75.6
pair_coeff 2 2 ./pgnpmf/N100.txt DE_GNP 115.92
pair_coeff 1 2 ./pgnpmf/mixed_potential.txt DE_GNP 95.66

#Neigh_list Calc Frequency

neigh_modify delay 0 every 1 check yes

# Saving Frequency (50 frames)

variable ts_save equal 5000

variable nts equal 5000/0.25
variable medium equal 20000*3
variable long equal 20000*5

# Dump
#dump_modify 1 first no sort id
dump 2 all cfg 50000 ./pgnpmf/82/equilibration/trajectory/dumpequ.tens_*.cfg mass type xs ys zs fx fy fz
dump_modify 2 element N20 N100

# thermo_style
thermo_style custom step temp press pe density ke etotal lx ly lz xlo xhi ylo yhi zlo zhi vol dt time cpu tpcpu spcpu cpuremain

# run info
timestep 0.25
thermo 5000

# fix

fix 1 all momentum 1000 linear 1 1 1 angular
variable T equal 300
fix 2 all nvt temp 300 370000 100.0

run 20000
Generated 0 of 1 mixed pair_coeff terms from geometric mixing rule
Unused restart file global fix info:
  fix style: npt, fix ID: 5
  update every 1 steps, delay 0 steps, check yes
Step          Temp          Press          PotEng        Density         KinEng         TotEng           Lx             Ly             Lz            Xlo            Xhi            Ylo            Yhi            Zlo            Zhi           Volume           Dt            Time           CPU           T/CPU          S/CPU         CPULeft
660000   327.90456      0.99931004    -697887.98      0.023972546    976.44378     -696911.54      2627.555       2627.555       2627.555       686.22248      3313.7775      686.22248      3313.7775      686.22248      3313.7775      1.814076e+10   0.25           210000         0              0              0              0
Loop time of 0.385973 on 4 procs for 20000 steps with 1000 atoms

unfix 2

fix 3 all nvt temp 370000 370000 $(100.0*dt) #iso 1.0 1.0 $(1000.0*dt)
fix 3 all nvt temp 370000 370000 25

run 100000
Generated 0 of 1 mixed pair_coeff terms from geometric mixing rule
Step          Temp          Press          PotEng        Density         KinEng         TotEng           Lx             Ly             Lz            Xlo            Xhi            Ylo            Yhi            Zlo            Zhi           Volume           Dt            Time           CPU           T/CPU          S/CPU         CPULeft
680000   375283.58      3.4231708     -632750.32      0.023972546    1117530.4      484780.11      2627.555       2627.555       2627.555       686.22248      3313.7775      686.22248      3313.7775      686.22248      3313.7775      1.814076e+10   0.25           215000         0              0              0              0
Averages over the last 11 of 21 rows, steps 730000 to 780000:
Temp Press PotEng Density KinEng TotEng Lx Ly Lz Xlo Xhi Ylo Yhi Zlo Zhi Volume Dt
368870 2.8708 -560424 0.0239725 1.09843e+06 538008 2627.55 2627.55 2627.55 686.222 3313.78 686.222 3313.78 686.222 3313.78 1.81408e+10 0.25
Loop time of 1.93031 on 4 procs for 100000 steps with 1000 atoms

unfix 3

fix 4 all nvt temp 370000 300 100.0

run 20000
Generated 0 of 1 mixed pair_coeff terms from geometric mixing rule
Step          Temp          Press          PotEng        Density         KinEng         TotEng           Lx             Ly             Lz            Xlo            Xhi            Ylo            Yhi            Zlo            Zhi           Volume           Dt            Time           CPU           T/CPU          S/CPU         CPULeft
780000   373869.04      2.7507269     -492145.33      0.023972546    1113318.2      621172.82      2627.555       2627.555       2627.555       686.22248      3313.7775      686.22248      3313.7775      686.22248      3313.7775      1.814076e+10   0.25           240000         0              0              0              0
Loop time of 0.377155 on 4 procs for 20000 steps with 1000 atoms

unfix 4

fix 5 all npt temp 300 300 $(100.0*dt) iso 1.0 1.0 $(1000.0*dt)
fix 5 all npt temp 300 300 25 iso 1.0 1.0 $(1000.0*dt)
fix 5 all npt temp 300 300 25 iso 1.0 1.0 250

run 60000
Generated 0 of 1 mixed pair_coeff terms from geometric mixing rule
Step          Temp          Press          PotEng        Density         KinEng         TotEng           Lx             Ly             Lz            Xlo            Xhi            Ylo            Yhi            Zlo            Zhi           Volume           Dt            Time           CPU           T/CPU          S/CPU         CPULeft
800000   7833.968      -0.5867729     -475606.63      0.023972546    23328.219     -452278.42      2627.555       2627.555       2627.555       686.22248      3313.7775      686.22248      3313.7775      686.22248      3313.7775      1.814076e+10   0.25           245000         0              0              0              0
Averages over the last 7 of 13 rows, steps 830000 to 860000:
Temp Press PotEng Density KinEng TotEng Lx Ly Lz Xlo Xhi Ylo Yhi Zlo Zhi Volume Dt
329.46 1.00137 -833417 0.0339274 981.075 -832436 2341 2341 2341 829.502 3170.5 829.502 3170.5 829.502 3170.5 1.28349e+10 0.25
Loop time of 1.91072 on 4 procs for 60000 steps with 1000 atoms

# run_style
run_style verlet

# write restart
write_restart ./pgnpmf/82/equpmf4.res
System init for write_restart ...
Generated 0 of 1 mixed pair_coeff terms from geometric mixing rule
