LAMMPS (23 Jun 2022 - Update 1)
# Read restart
read_restart ./pgnpmf/82/equpmf21.res
Reading restart file ...
  restart file = 23 Jun 2022, LAMMPS = 23 Jun 2022
  restoring atom style atomic from restart
  orthogonal box = (1566.6576 1566.6576 1566.6576) to (2433.3424 2433.3424 2433.3424)
  restoring pair style table from restart
  1000 atoms
  read_restart CPU = 0.004 seconds

# Settings

pair_style table spline 9941

pair_coeff 1 1 ./pgnpmf/N20.txt DE_GNP 75.6
pair_coeff 2 2 ./pgnpmf/N100.txt DE_GNP 115.92
pair_coeff 1 2 ./pgnpmf/mixed_potential.txt DE_GNP 95.66

#Neigh_list Calc Frequency

neigh_modify delay 0 every 1 check yes

# Saving Frequency (50 frames)

variable ts_save equal 5000

variable nts equal 5000/0.25
variable medium equal 20000*3
variable long equal 20000*5

# Dump
#dump_modify 1 first no sort id
dump 2 all cfg 50000 ./pgnpmf/82/equilibration/trajectory/dumpequ.tens_*.cfg mass type xs ys zs fx fy fz
dump_modify 2 element N20 N100

# thermo_style
thermo_style custom step temp press pe density ke etotal lx ly lz xlo xhi ylo yhi zlo zhi vol dt time cpu tpcpu spcpu cpuremain

# run info
timestep 0.25
thermo 5000

# fix

fix 1 all momentum 1000 linear 1 1 1 angular
variable T equal 300
fix 2 all nvt temp 300 370000 100.0

run 20000
Generated 0 of 1 mixed pair_coeff terms from geometric mixing rule
Unused restart file global fix info:
  fix style: npt, fix ID: 5
  update every 1 steps, delay 0 steps, check yes
Step          Temp          Press          PotEng        Density         KinEng         TotEng           Lx             Ly             Lz            Xlo            Xhi            Ylo            Yhi            Zlo            Zhi           Volume           Dt            Time           CPU           T/CPU          S/CPU         CPULeft
4260000   329.55418      1.0184017     -4312412        0.66801489     981.35608     -4311430.7      866.68477      866.68477      866.68477      1566.6576      2433.3424      1566.6576      2433.3424      1566.6576      2433.3424      6.5100375e+08  0.25           1110000        0              0              0              0
Loop time of 0.792454 on 4 procs for 20000 steps with 1000 atoms

unfix 2

fix 3 all nvt temp 370000 370000 $(100.0*dt) #iso 1.0 1.0 $(1000.0*dt)
fix 3 all nvt temp 370000 370000 25

run 100000
Generated 0 of 1 mixed pair_coeff terms from geometric mixing rule
Step          Temp          Press          PotEng        Density         KinEng         TotEng           Lx             Ly             Lz            Xlo            Xhi            Ylo            Yhi            Zlo            Zhi           Volume           Dt            Time           CPU           T/CPU          S/CPU         CPULeft
4280000   372073.13      162.30731     -4255821.8      0.66801489     1107970.2     -3147851.6      866.68477      866.68477      866.68477      1566.6576      2433.3424      1566.6576      2433.3424      1566.6576      2433.3424      6.5100375e+08  0.25           1115000        0              0              0              0
Averages over the last 11 of 21 rows, steps 4330000 to 4380000:
Temp Press PotEng Density KinEng TotEng Lx Ly Lz Xlo Xhi Ylo Yhi Zlo Zhi Volume Dt
369920 70.6525 -4.34835e+06 0.668015 1.10156e+06 -3.24679e+06 866.685 866.685 866.685 1566.66 2433.34 1566.66 2433.34 1566.66 2433.34 6.51004e+08 0.25
Loop time of 11.7973 on 4 procs for 100000 steps with 1000 atoms

unfix 3

fix 4 all nvt temp 370000 300 100.0

run 20000
Generated 0 of 1 mixed pair_coeff terms from geometric mixing rule
Step          Temp          Press          PotEng        Density         KinEng         TotEng           Lx             Ly             Lz            Xlo            Xhi            Ylo            Yhi            Zlo            Zhi           Volume           Dt            Time           CPU           T/CPU          S/CPU         CPULeft
4380000   368129.09      75.21108      -4382116.8      0.66801489     1096225.6     -3285891.3      866.68477      866.68477      866.68477      1566.6576      2433.3424      1566.6576      2433.3424      1566.6576      2433.3424      6.5100375e+08  0.25           1140000        0              0              0              0
Loop time of 0.793269 on 4 procs for 20000 steps with 1000 atoms

unfix 4

fix 5 all npt temp 300 300 $(100.0*dt) iso 1.0 1.0 $(1000.0*dt)
fix 5 all npt temp 300 300 25 iso 1.0 1.0 $(1000.0*dt)
fix 5 all npt temp 300 300 25 iso 1.0 1.0 250

run 60000
Generated 0 of 1 mixed pair_coeff terms from geometric mixing rule
Step          Temp          Press          PotEng        Density         KinEng         TotEng           Lx             Ly             Lz            Xlo            Xhi            Ylo            Yhi            Zlo            Zhi           Volume           Dt            Time           CPU           T/CPU          S/CPU         CPULeft
4400000   8219.7529     -128.42386     -4501132.1      0.66801489     24477.021     -4476655.1      866.68477      866.68477      866.68477      1566.6576      2433.3424      1566.6576      2433.3424      1566.6576      2433.3424      6.5100375e+08  0.25           1145000        0              0              0              0
Averages over the last 7 of 13 rows, steps 4430000 to 4460000:
Temp Press PotEng Density KinEng TotEng Lx Ly Lz Xlo Xhi Ylo Yhi Zlo Zhi Volume Dt
335.015 0.923436 -4.98689e+06 0.739714 997.618 -4.98589e+06 837.743 837.743 837.743 1581.13 2418.87 1581.13 2418.87 1581.13 2418.87 5.87956e+08 0.25
Loop time of 3.23911 on 4 procs for 60000 steps with 1000 atoms

# run_style
run_style verlet

# write restart
write_restart ./pgnpmf/82/equpmf22.res
System init for write_restart ...
Generated 0 of 1 mixed pair_coeff terms from geometric mixing rule
