LAMMPS (23 Jun 2022 - Update 1)
# Read restart
read_restart ./pgnpmf/82/equpmf2.res
Reading restart file ...
  restart file = 23 Jun 2022, LAMMPS = 23 Jun 2022
  restoring atom style atomic from restart
  orthogonal box = (509.666 509.666 509.666) to (3490.334 3490.334 3490.334)
  restoring pair style table from restart
  1000 atoms
  read_restart CPU = 0.003 seconds

# Settings

pair_style table spline 9941

pair_coeff 1 1 ./pgnpmf/N20.txt DE_GNP 75.6
pair_coeff 2 2 ./pgnpmf/N100.txt DE_GNP 115.92
pair_coeff 1 2 ./pgnpmf/mixed_potential.txt DE_GNP 95.66

#Neigh_list Calc Frequency

neigh_modify delay 0 every 1 check yes

# Saving Frequency (50 frames)

variable ts_save equal 5000

variable nts equal 5000/0.25
variable medium equal 20000*3
variable long equal 20000*5

# Dump
#dump_modify 1 first no sort id
dump 2 all cfg 50000 ./pgnpmf/82/equilibration/trajectory/dumpequ.tens_*.cfg mass type xs ys zs fx fy fz
dump_modify 2 element N20 N100

# thermo_style
thermo_style custom step temp press pe density ke etotal lx ly lz xlo xhi ylo yhi zlo zhi vol dt time cpu tpcpu spcpu cpuremain

# run info
timestep 0.25
thermo 5000

# fix

fix 1 all momentum 1000 linear 1 1 1 angular
variable T equal 300
fix 2 all nvt temp 300 370000 100.0

run 20000
Generated 0 of 1 mixed pair_coeff terms from geometric mixing rule
Unused restart file global fix info:
  fix style: npt, fix ID: 5
  update every 1 steps, delay 0 steps, check yes
Step          Temp          Press          PotEng        Density         KinEng         TotEng           Lx             Ly             Lz            Xlo            Xhi            Ylo            Yhi            Zlo            Zhi           Volume           Dt            Time           CPU           T/CPU          S/CPU         CPULeft
460000   334.41681      1.006699      -559777.1       0.016422105    995.83616     -558781.27      2980.668       2980.668       2980.668       509.666        3490.334       509.666        3490.334       509.666        3490.334       2.6481392e+10  0.25           160000         0              0              0              0
Loop time of 0.371719 on 4 procs for 20000 steps with 1000 atoms

unfix 2

fix 3 all nvt temp 370000 370000 $(100.0*dt) #iso 1.0 1.0 $(1000.0*dt)
fix 3 all nvt temp 370000 370000 25

run 100000
Generated 0 of 1 mixed pair_coeff terms from geometric mixing rule
Step          Temp          Press          PotEng        Density         KinEng         TotEng           Lx             Ly             Lz            Xlo            Xhi            Ylo            Yhi            Zlo            Zhi           Volume           Dt            Time           CPU           T/CPU          S/CPU         CPULeft
480000   370903.62      1.9955928     -510078.96      0.016422105    1104487.6      594408.67      2980.668       2980.668       2980.668       509.666        3490.334       509.666        3490.334       509.666        3490.334       2.6481392e+10  0.25           165000         0              0              0              0
Averages over the last 11 of 21 rows, steps 530000 to 580000:
Temp Press PotEng Density KinEng TotEng Lx Ly Lz Xlo Xhi Ylo Yhi Zlo Zhi Volume Dt
369705 2.01348 -491126 0.0164221 1.10092e+06 609793 2980.67 2980.67 2980.67 509.666 3490.33 509.666 3490.33 509.666 3490.33 2.64814e+10 0.25
Loop time of 1.86409 on 4 procs for 100000 steps with 1000 atoms

unfix 3

fix 4 all nvt temp 370000 300 100.0

run 20000
Generated 0 of 1 mixed pair_coeff terms from geometric mixing rule
Step          Temp          Press          PotEng        Density         KinEng         TotEng           Lx             Ly             Lz            Xlo            Xhi            Ylo            Yhi            Zlo            Zhi           Volume           Dt            Time           CPU           T/CPU          S/CPU         CPULeft
580000   362019.97      1.8418889     -455753.61      0.016422105    1078033.6      622280.03      2980.668       2980.668       2980.668       509.666        3490.334       509.666        3490.334       509.666        3490.334       2.6481392e+10  0.25           190000         0              0              0              0
Loop time of 0.366779 on 4 procs for 20000 steps with 1000 atoms

unfix 4

fix 5 all npt temp 300 300 $(100.0*dt) iso 1.0 1.0 $(1000.0*dt)
fix 5 all npt temp 300 300 25 iso 1.0 1.0 $(1000.0*dt)
fix 5 all npt temp 300 300 25 iso 1.0 1.0 250

run 60000
Generated 0 of 1 mixed pair_coeff terms from geometric mixing rule
Step          Temp          Press          PotEng        Density         KinEng         TotEng           Lx             Ly             Lz            Xlo            Xhi            Ylo            Yhi            Zlo            Zhi           Volume           Dt            Time           CPU           T/CPU          S/CPU         CPULeft
600000   7850.4732     -0.21713537    -432125.84      0.016422105    23377.369     -408748.47      2980.668       2980.668       2980.668       509.666        3490.334       509.666        3490.334       509.666        3490.334       2.6481392e+10  0.25           195000         0              0              0              0
Averages over the last 7 of 13 rows, steps 630000 to 660000:
Temp Press PotEng Density KinEng TotEng Lx Ly Lz Xlo Xhi Ylo Yhi Zlo Zhi Volume Dt
328.823 0.999491 -649436 0.0228056 979.178 -648457 2672.33 2672.33 2672.33 663.836 3336.16 663.836 3336.16 663.836 3336.16 1.90915e+10 0.25
Loop time of 1.86427 on 4 procs for 60000 steps with 1000 atoms

# run_style
run_style verlet

# write restart
write_restart ./pgnpmf/82/equpmf3.res
System init for write_restart ...
Generated 0 of 1 mixed pair_coeff terms from geometric mixing rule
