LAMMPS (23 Jun 2022 - Update 1)
# Read restart
read_restart ./pgnpmf/82/equpmf36.res
Reading restart file ...
  restart file = 23 Jun 2022, LAMMPS = 23 Jun 2022
  restoring atom style atomic from restart
  orthogonal box = (1702.0156 1702.0156 1702.0156) to (2297.9844 2297.9844 2297.9844)
  restoring pair style table from restart
  1000 atoms
  read_restart CPU = 0.006 seconds

# Settings

pair_style table spline 9941

pair_coeff 1 1 ./pgnpmf/N20.txt DE_GNP 75.6
pair_coeff 2 2 ./pgnpmf/N100.txt DE_GNP 115.92
pair_coeff 1 2 ./pgnpmf/mixed_potential.txt DE_GNP 95.66

#Neigh_list Calc Frequency

neigh_modify delay 0 every 1 check yes

# Saving Frequency (50 frames)

variable ts_save equal 5000

variable nts equal 5000/0.25
variable medium equal 20000*3
variable long equal 20000*5

# Dump
#dump_modify 1 first no sort id
dump 2 all cfg 50000 ./pgnpmf/82/equilibration/trajectory/dumpequ.tens_*.cfg mass type xs ys zs fx fy fz
dump_modify 2 element N20 N100

# thermo_style
thermo_style custom step temp press pe density ke etotal lx ly lz xlo xhi ylo yhi zlo zhi vol dt time cpu tpcpu spcpu cpuremain

# run info
timestep 0.25
thermo 5000

# fix

fix 1 all momentum 1000 linear 1 1 1 angular
variable T equal 300
fix 2 all nvt temp 300 370000 100.0

run 20000
Generated 0 of 1 mixed pair_coeff terms from geometric mixing rule
Unused restart file global fix info:
  fix style: npt, fix ID: 5
  update every 1 steps, delay 0 steps, check yes
Step          Temp          Press          PotEng        Density         KinEng         TotEng           Lx             Ly             Lz            Xlo            Xhi            Ylo            Yhi            Zlo            Zhi           Volume           Dt            Time           CPU           T/CPU          S/CPU         CPULeft
7260000   333.85285      2.3721939     -13807358       2.0544663      994.15677     -13806364       595.96882      595.96882      595.96882      1702.0156      2297.9844      1702.0156      2297.9844      1702.0156      2297.9844      2.1167551e+08  0.25           1860000        0              0              0              0
Loop time of 1.50324 on 4 procs for 20000 steps with 1000 atoms

unfix 2

fix 3 all nvt temp 370000 370000 $(100.0*dt) #iso 1.0 1.0 $(1000.0*dt)
fix 3 all nvt temp 370000 370000 25

run 100000
Generated 0 of 1 mixed pair_coeff terms from geometric mixing rule
Step          Temp          Press          PotEng        Density         KinEng         TotEng           Lx             Ly             Lz            Xlo            Xhi            Ylo            Yhi            Zlo            Zhi           Volume           Dt            Time           CPU           T/CPU          S/CPU         CPULeft
7280000   368739.43      435.89183     -13709831       2.0544663      1098043.1     -12611788       595.96882      595.96882      595.96882      1702.0156      2297.9844      1702.0156      2297.9844      1702.0156      2297.9844      2.1167551e+08  0.25           1865000        0              0              0              0
Averages over the last 11 of 21 rows, steps 7330000 to 7380000:
Temp Press PotEng Density KinEng TotEng Lx Ly Lz Xlo Xhi Ylo Yhi Zlo Zhi Volume Dt
370262 1240.2 -1.35275e+07 2.05447 1.10258e+06 -1.24249e+07 595.969 595.969 595.969 1702.02 2297.98 1702.02 2297.98 1702.02 2297.98 2.11676e+08 0.25
Loop time of 7.72177 on 4 procs for 100000 steps with 1000 atoms

unfix 3

fix 4 all nvt temp 370000 300 100.0

run 20000
Generated 0 of 1 mixed pair_coeff terms from geometric mixing rule
Step          Temp          Press          PotEng        Density         KinEng         TotEng           Lx             Ly             Lz            Xlo            Xhi            Ylo            Yhi            Zlo            Zhi           Volume           Dt            Time           CPU           T/CPU          S/CPU         CPULeft
7380000   372539.13      1417.6309     -13540519       2.0544663      1109357.9     -12431161       595.96882      595.96882      595.96882      1702.0156      2297.9844      1702.0156      2297.9844      1702.0156      2297.9844      2.1167551e+08  0.25           1890000        0              0              0              0
Loop time of 1.60568 on 4 procs for 20000 steps with 1000 atoms

unfix 4

fix 5 all npt temp 300 300 $(100.0*dt) iso 1.0 1.0 $(1000.0*dt)
fix 5 all npt temp 300 300 25 iso 1.0 1.0 $(1000.0*dt)
fix 5 all npt temp 300 300 25 iso 1.0 1.0 250

run 60000
Generated 0 of 1 mixed pair_coeff terms from geometric mixing rule
Step          Temp          Press          PotEng        Density         KinEng         TotEng           Lx             Ly             Lz            Xlo            Xhi            Ylo            Yhi            Zlo            Zhi           Volume           Dt            Time           CPU           T/CPU          S/CPU         CPULeft
7400000   9306.8507     -296.60469     -13936335       2.0544663      27714.212     -13908620       595.96882      595.96882      595.96882      1702.0156      2297.9844      1702.0156      2297.9844      1702.0156      2297.9844      2.1167551e+08  0.25           1895000        0              0              0              0
Averages over the last 7 of 13 rows, steps 7430000 to 7460000:
Temp Press PotEng Density KinEng TotEng Lx Ly Lz Xlo Xhi Ylo Yhi Zlo Zhi Volume Dt
333.856 0.79859 -1.41852e+07 2.09971 994.166 -1.41842e+07 591.658 591.658 591.658 1704.17 2295.83 1704.17 2295.83 1704.17 2295.83 2.07116e+08 0.25
Loop time of 5.38376 on 4 procs for 60000 steps with 1000 atoms

# run_style
run_style verlet

# write restart
write_restart ./pgnpmf/82/equpmf37.res
System init for write_restart ...
Generated 0 of 1 mixed pair_coeff terms from geometric mixing rule
