LAMMPS (23 Jun 2022 - Update 1)
# Read restart
read_restart ./pgnpmf/82/equpmf38.res
Reading restart file ...
  restart file = 23 Jun 2022, LAMMPS = 23 Jun 2022
  restoring atom style atomic from restart
  orthogonal box = (1706.8232 1706.8232 1706.8232) to (2293.1768 2293.1768 2293.1768)
  restoring pair style table from restart
  1000 atoms
  read_restart CPU = 0.005 seconds

# Settings

pair_style table spline 9941

pair_coeff 1 1 ./pgnpmf/N20.txt DE_GNP 75.6
pair_coeff 2 2 ./pgnpmf/N100.txt DE_GNP 115.92
pair_coeff 1 2 ./pgnpmf/mixed_potential.txt DE_GNP 95.66

#Neigh_list Calc Frequency

neigh_modify delay 0 every 1 check yes

# Saving Frequency (50 frames)

variable ts_save equal 5000

variable nts equal 5000/0.25
variable medium equal 20000*3
variable long equal 20000*5

# Dump
#dump_modify 1 first no sort id
dump 2 all cfg 50000 ./pgnpmf/82/equilibration/trajectory/dumpequ.tens_*.cfg mass type xs ys zs fx fy fz
dump_modify 2 element N20 N100

# thermo_style
thermo_style custom step temp press pe density ke etotal lx ly lz xlo xhi ylo yhi zlo zhi vol dt time cpu tpcpu spcpu cpuremain

# run info
timestep 0.25
thermo 5000

# fix

fix 1 all momentum 1000 linear 1 1 1 angular
variable T equal 300
fix 2 all nvt temp 300 370000 100.0

run 20000
Generated 0 of 1 mixed pair_coeff terms from geometric mixing rule
Unused restart file global fix info:
  fix style: npt, fix ID: 5
  update every 1 steps, delay 0 steps, check yes
Step          Temp          Press          PotEng        Density         KinEng         TotEng           Lx             Ly             Lz            Xlo            Xhi            Ylo            Yhi            Zlo            Zhi           Volume           Dt            Time           CPU           T/CPU          S/CPU         CPULeft
7660000   331.00736     -0.72020134    -14544142       2.1572025      985.68339     -14543156       586.35357      586.35357      586.35357      1706.8232      2293.1768      1706.8232      2293.1768      1706.8232      2293.1768      2.0159452e+08  0.25           1960000        0              0              0              0
Loop time of 1.60595 on 4 procs for 20000 steps with 1000 atoms

unfix 2

fix 3 all nvt temp 370000 370000 $(100.0*dt) #iso 1.0 1.0 $(1000.0*dt)
fix 3 all nvt temp 370000 370000 25

run 100000
Generated 0 of 1 mixed pair_coeff terms from geometric mixing rule
Step          Temp          Press          PotEng        Density         KinEng         TotEng           Lx             Ly             Lz            Xlo            Xhi            Ylo            Yhi            Zlo            Zhi           Volume           Dt            Time           CPU           T/CPU          S/CPU         CPULeft
7680000   370340.81      912.28688     -14302065       2.1572025      1102811.7     -13199253       586.35357      586.35357      586.35357      1706.8232      2293.1768      1706.8232      2293.1768      1706.8232      2293.1768      2.0159452e+08  0.25           1965000        0              0              0              0
Averages over the last 11 of 21 rows, steps 7730000 to 7780000:
Temp Press PotEng Density KinEng TotEng Lx Ly Lz Xlo Xhi Ylo Yhi Zlo Zhi Volume Dt
368646 1878.02 -1.40446e+07 2.1572 1.09776e+06 -1.29468e+07 586.354 586.354 586.354 1706.82 2293.18 1706.82 2293.18 1706.82 2293.18 2.01595e+08 0.25
Loop time of 7.96053 on 4 procs for 100000 steps with 1000 atoms

unfix 3

fix 4 all nvt temp 370000 300 100.0

run 20000
Generated 0 of 1 mixed pair_coeff terms from geometric mixing rule
Step          Temp          Press          PotEng        Density         KinEng         TotEng           Lx             Ly             Lz            Xlo            Xhi            Ylo            Yhi            Zlo            Zhi           Volume           Dt            Time           CPU           T/CPU          S/CPU         CPULeft
7780000   374659.45      1944.6153     -14064581       2.1572025      1115671.9     -12948909       586.35357      586.35357      586.35357      1706.8232      2293.1768      1706.8232      2293.1768      1706.8232      2293.1768      2.0159452e+08  0.25           1990000        0              0              0              0
Loop time of 1.58133 on 4 procs for 20000 steps with 1000 atoms

unfix 4

fix 5 all npt temp 300 300 $(100.0*dt) iso 1.0 1.0 $(1000.0*dt)
fix 5 all npt temp 300 300 25 iso 1.0 1.0 $(1000.0*dt)
fix 5 all npt temp 300 300 25 iso 1.0 1.0 250

run 60000
Generated 0 of 1 mixed pair_coeff terms from geometric mixing rule
Step          Temp          Press          PotEng        Density         KinEng         TotEng           Lx             Ly             Lz            Xlo            Xhi            Ylo            Yhi            Zlo            Zhi           Volume           Dt            Time           CPU           T/CPU          S/CPU         CPULeft
7800000   9401.428      -134.25238     -14586271       2.1572025      27995.847     -14558275       586.35357      586.35357      586.35357      1706.8232      2293.1768      1706.8232      2293.1768      1706.8232      2293.1768      2.0159452e+08  0.25           1995000        0              0              0              0
Averages over the last 7 of 13 rows, steps 7830000 to 7860000:
Temp Press PotEng Density KinEng TotEng Lx Ly Lz Xlo Xhi Ylo Yhi Zlo Zhi Volume Dt
331.666 -1.04442 -1.4791e+07 2.19005 987.645 -1.479e+07 583.408 583.408 583.408 1708.3 2291.7 1708.3 2291.7 1708.3 2291.7 1.98572e+08 0.25
Loop time of 5.51562 on 4 procs for 60000 steps with 1000 atoms

# run_style
run_style verlet

# write restart
write_restart ./pgnpmf/82/equpmf39.res
System init for write_restart ...
Generated 0 of 1 mixed pair_coeff terms from geometric mixing rule
