LAMMPS (23 Jun 2022 - Update 1)
# Read restart
read_restart ./pgnpmf/82/equpmf12.res
Reading restart file ...
  restart file = 23 Jun 2022, LAMMPS = 23 Jun 2022
  restoring atom style atomic from restart
  orthogonal box = (1336.8062 1336.8062 1336.8062) to (2663.1938 2663.1938 2663.1938)
  restoring pair style table from restart
  1000 atoms
  read_restart CPU = 0.004 seconds

# Settings

pair_style table spline 9941

pair_coeff 1 1 ./pgnpmf/N20.txt DE_GNP 75.6
pair_coeff 2 2 ./pgnpmf/N100.txt DE_GNP 115.92
pair_coeff 1 2 ./pgnpmf/mixed_potential.txt DE_GNP 95.66

#Neigh_list Calc Frequency

neigh_modify delay 0 every 1 check yes

# Saving Frequency (50 frames)

variable ts_save equal 5000

variable nts equal 5000/0.25
variable medium equal 20000*3
variable long equal 20000*5

# Dump
#dump_modify 1 first no sort id
dump 2 all cfg 50000 ./pgnpmf/82/equilibration/trajectory/dumpequ.tens_*.cfg mass type xs ys zs fx fy fz
dump_modify 2 element N20 N100

# thermo_style
thermo_style custom step temp press pe density ke etotal lx ly lz xlo xhi ylo yhi zlo zhi vol dt time cpu tpcpu spcpu cpuremain

# run info
timestep 0.25
thermo 5000

# fix

fix 1 all momentum 1000 linear 1 1 1 angular
variable T equal 300
fix 2 all nvt temp 300 370000 100.0

run 20000
Generated 0 of 1 mixed pair_coeff terms from geometric mixing rule
Unused restart file global fix info:
  fix style: npt, fix ID: 5
  update every 1 steps, delay 0 steps, check yes
Step          Temp          Press          PotEng        Density         KinEng         TotEng           Lx             Ly             Lz            Xlo            Xhi            Ylo            Yhi            Zlo            Zhi           Volume           Dt            Time           CPU           T/CPU          S/CPU         CPULeft
2460000   322.35163      1.0034937     -1694955.9      0.18636238     959.90812     -1693996        1326.3876      1326.3876      1326.3876      1336.8062      2663.1938      1336.8062      2663.1938      1336.8062      2663.1938      2.3335192e+09  0.25           660000         0              0              0              0
Loop time of 0.528798 on 4 procs for 20000 steps with 1000 atoms

unfix 2

fix 3 all nvt temp 370000 370000 $(100.0*dt) #iso 1.0 1.0 $(1000.0*dt)
fix 3 all nvt temp 370000 370000 25

run 100000
Generated 0 of 1 mixed pair_coeff terms from geometric mixing rule
Step          Temp          Press          PotEng        Density         KinEng         TotEng           Lx             Ly             Lz            Xlo            Xhi            Ylo            Yhi            Zlo            Zhi           Volume           Dt            Time           CPU           T/CPU          S/CPU         CPULeft
2480000   377015.49      37.856709     -1683253.8      0.18636238     1122687.8     -560566.05      1326.3876      1326.3876      1326.3876      1336.8062      2663.1938      1336.8062      2663.1938      1336.8062      2663.1938      2.3335192e+09  0.25           665000         0              0              0              0
Averages over the last 11 of 21 rows, steps 2530000 to 2580000:
Temp Press PotEng Density KinEng TotEng Lx Ly Lz Xlo Xhi Ylo Yhi Zlo Zhi Volume Dt
368740 22.9436 -1.53068e+06 0.186362 1.09804e+06 -432636 1326.39 1326.39 1326.39 1336.81 2663.19 1336.81 2663.19 1336.81 2663.19 2.33352e+09 0.25
Loop time of 2.64461 on 4 procs for 100000 steps with 1000 atoms

unfix 3

fix 4 all nvt temp 370000 300 100.0

run 20000
Generated 0 of 1 mixed pair_coeff terms from geometric mixing rule
Step          Temp          Press          PotEng        Density         KinEng         TotEng           Lx             Ly             Lz            Xlo            Xhi            Ylo            Yhi            Zlo            Zhi           Volume           Dt            Time           CPU           T/CPU          S/CPU         CPULeft
2580000   370792.3       18.100564     -1532928.8      0.18636238     1104156.1     -428772.68      1326.3876      1326.3876      1326.3876      1336.8062      2663.1938      1336.8062      2663.1938      1336.8062      2663.1938      2.3335192e+09  0.25           690000         0              0              0              0
Loop time of 0.524917 on 4 procs for 20000 steps with 1000 atoms

unfix 4

fix 5 all npt temp 300 300 $(100.0*dt) iso 1.0 1.0 $(1000.0*dt)
fix 5 all npt temp 300 300 25 iso 1.0 1.0 $(1000.0*dt)
fix 5 all npt temp 300 300 25 iso 1.0 1.0 250

run 60000
Generated 0 of 1 mixed pair_coeff terms from geometric mixing rule
Step          Temp          Press          PotEng        Density         KinEng         TotEng           Lx             Ly             Lz            Xlo            Xhi            Ylo            Yhi            Zlo            Zhi           Volume           Dt            Time           CPU           T/CPU          S/CPU         CPULeft
2600000   8024.8037     -10.796438     -1547603.7      0.18636238     23896.495     -1523707.2      1326.3876      1326.3876      1326.3876      1336.8062      2663.1938      1336.8062      2663.1938      1336.8062      2663.1938      2.3335192e+09  0.25           695000         0              0              0              0
Averages over the last 7 of 13 rows, steps 2630000 to 2660000:
Temp Press PotEng Density KinEng TotEng Lx Ly Lz Xlo Xhi Ylo Yhi Zlo Zhi Volume Dt
324.522 1.05383 -1.85383e+06 0.215082 966.371 -1.85286e+06 1264.6 1264.6 1264.6 1367.7 2632.3 1367.7 2632.3 1367.7 2632.3 2.02257e+09 0.25
Loop time of 2.32991 on 4 procs for 60000 steps with 1000 atoms

# run_style
run_style verlet

# write restart
write_restart ./pgnpmf/82/equpmf13.res
System init for write_restart ...
Generated 0 of 1 mixed pair_coeff terms from geometric mixing rule
