LAMMPS (23 Jun 2022 - Update 1)
# Read restart
read_restart ./pgnpmf/82/equpmf56.res
Reading restart file ...
  restart file = 23 Jun 2022, LAMMPS = 23 Jun 2022
  restoring atom style atomic from restart
  orthogonal box = (1712.3504 1712.3504 1712.3504) to (2287.6496 2287.6496 2287.6496)
  restoring pair style table from restart
  1000 atoms
  read_restart CPU = 0.005 seconds

# Settings

pair_style table spline 9941

pair_coeff 1 1 ./pgnpmf/N20.txt DE_GNP 75.6
pair_coeff 2 2 ./pgnpmf/N100.txt DE_GNP 115.92
pair_coeff 1 2 ./pgnpmf/mixed_potential.txt DE_GNP 95.66

#Neigh_list Calc Frequency

neigh_modify delay 0 every 1 check yes

# Saving Frequency (50 frames)

variable ts_save equal 5000

variable nts equal 5000/0.25
variable medium equal 20000*3
variable long equal 20000*5

# Dump
#dump_modify 1 first no sort id
dump 2 all cfg 50000 ./pgnpmf/82/equilibration/trajectory/dumpequ.tens_*.cfg mass type xs ys zs fx fy fz
dump_modify 2 element N20 N100

# thermo_style
thermo_style custom step temp press pe density ke etotal lx ly lz xlo xhi ylo yhi zlo zhi vol dt time cpu tpcpu spcpu cpuremain

# run info
timestep 0.25
thermo 5000

# fix

fix 1 all momentum 1000 linear 1 1 1 angular
variable T equal 300
fix 2 all nvt temp 300 370000 100.0

run 20000
Generated 0 of 1 mixed pair_coeff terms from geometric mixing rule
Unused restart file global fix info:
  fix style: npt, fix ID: 5
  update every 1 steps, delay 0 steps, check yes
Step          Temp          Press          PotEng        Density         KinEng         TotEng           Lx             Ly             Lz            Xlo            Xhi            Ylo            Yhi            Zlo            Zhi           Volume           Dt            Time           CPU           T/CPU          S/CPU         CPULeft
11260000   326.21069     -3.622546      -15359359       2.2839601      971.39973     -15358388       575.29911      575.29911      575.29911      1712.3504      2287.6496      1712.3504      2287.6496      1712.3504      2287.6496      1.9040621e+08  0.25           2860000        0              0              0              0
Loop time of 1.61556 on 4 procs for 20000 steps with 1000 atoms

unfix 2

fix 3 all nvt temp 370000 370000 $(100.0*dt) #iso 1.0 1.0 $(1000.0*dt)
fix 3 all nvt temp 370000 370000 25

run 100000
Generated 0 of 1 mixed pair_coeff terms from geometric mixing rule
Step          Temp          Press          PotEng        Density         KinEng         TotEng           Lx             Ly             Lz            Xlo            Xhi            Ylo            Yhi            Zlo            Zhi           Volume           Dt            Time           CPU           T/CPU          S/CPU         CPULeft
11280000   372196.06      1428.4511     -14989025       2.2839601      1108336.3     -13880689       575.29911      575.29911      575.29911      1712.3504      2287.6496      1712.3504      2287.6496      1712.3504      2287.6496      1.9040621e+08  0.25           2865000        0              0              0              0
Averages over the last 11 of 21 rows, steps 11330000 to 11380000:
Temp Press PotEng Density KinEng TotEng Lx Ly Lz Xlo Xhi Ylo Yhi Zlo Zhi Volume Dt
368069 2678.76 -1.46856e+07 2.28396 1.09605e+06 -1.35895e+07 575.299 575.299 575.299 1712.35 2287.65 1712.35 2287.65 1712.35 2287.65 1.90406e+08 0.25
Loop time of 8.17711 on 4 procs for 100000 steps with 1000 atoms

unfix 3

fix 4 all nvt temp 370000 300 100.0

run 20000
Generated 0 of 1 mixed pair_coeff terms from geometric mixing rule
Step          Temp          Press          PotEng        Density         KinEng         TotEng           Lx             Ly             Lz            Xlo            Xhi            Ylo            Yhi            Zlo            Zhi           Volume           Dt            Time           CPU           T/CPU          S/CPU         CPULeft
11380000   374072.58      2931.682      -14638421       2.2839601      1113924.3     -13524497       575.29911      575.29911      575.29911      1712.3504      2287.6496      1712.3504      2287.6496      1712.3504      2287.6496      1.9040621e+08  0.25           2890000        0              0              0              0
Loop time of 1.64327 on 4 procs for 20000 steps with 1000 atoms

unfix 4

fix 5 all npt temp 300 300 $(100.0*dt) iso 1.0 1.0 $(1000.0*dt)
fix 5 all npt temp 300 300 25 iso 1.0 1.0 $(1000.0*dt)
fix 5 all npt temp 300 300 25 iso 1.0 1.0 250

run 60000
Generated 0 of 1 mixed pair_coeff terms from geometric mixing rule
Step          Temp          Press          PotEng        Density         KinEng         TotEng           Lx             Ly             Lz            Xlo            Xhi            Ylo            Yhi            Zlo            Zhi           Volume           Dt            Time           CPU           T/CPU          S/CPU         CPULeft
11400000   9641.9692      691.1733      -15188056       2.2839601      28712.138     -15159343       575.29911      575.29911      575.29911      1712.3504      2287.6496      1712.3504      2287.6496      1712.3504      2287.6496      1.9040621e+08  0.25           2895000        0              0              0              0
Averages over the last 7 of 13 rows, steps 11430000 to 11460000:
Temp Press PotEng Density KinEng TotEng Lx Ly Lz Xlo Xhi Ylo Yhi Zlo Zhi Volume Dt
328.253 -0.408915 -1.52859e+07 2.277 977.482 -1.52849e+07 575.885 575.885 575.885 1712.06 2287.94 1712.06 2287.94 1712.06 2287.94 1.90989e+08 0.25
Loop time of 5.6881 on 4 procs for 60000 steps with 1000 atoms

# run_style
run_style verlet

# write restart
write_restart ./pgnpmf/82/equpmf57.res
System init for write_restart ...
Generated 0 of 1 mixed pair_coeff terms from geometric mixing rule
