LAMMPS (23 Jun 2022 - Update 1)
# Read restart
read_restart ./pgnpmf/82/equpmf29.res
Reading restart file ...
  restart file = 23 Jun 2022, LAMMPS = 23 Jun 2022
  restoring atom style atomic from restart
  orthogonal box = (1660.5131 1660.5131 1660.5131) to (2339.4869 2339.4869 2339.4869)
  restoring pair style table from restart
  1000 atoms
  read_restart CPU = 0.005 seconds

# Settings

pair_style table spline 9941

pair_coeff 1 1 ./pgnpmf/N20.txt DE_GNP 75.6
pair_coeff 2 2 ./pgnpmf/N100.txt DE_GNP 115.92
pair_coeff 1 2 ./pgnpmf/mixed_potential.txt DE_GNP 95.66

#Neigh_list Calc Frequency

neigh_modify delay 0 every 1 check yes

# Saving Frequency (50 frames)

variable ts_save equal 5000

variable nts equal 5000/0.25
variable medium equal 20000*3
variable long equal 20000*5

# Dump
#dump_modify 1 first no sort id
dump 2 all cfg 50000 ./pgnpmf/82/equilibration/trajectory/dumpequ.tens_*.cfg mass type xs ys zs fx fy fz
dump_modify 2 element N20 N100

# thermo_style
thermo_style custom step temp press pe density ke etotal lx ly lz xlo xhi ylo yhi zlo zhi vol dt time cpu tpcpu spcpu cpuremain

# run info
timestep 0.25
thermo 5000

# fix

fix 1 all momentum 1000 linear 1 1 1 angular
variable T equal 300
fix 2 all nvt temp 300 370000 100.0

run 20000
Generated 0 of 1 mixed pair_coeff terms from geometric mixing rule
Unused restart file global fix info:
  fix style: npt, fix ID: 5
  update every 1 steps, delay 0 steps, check yes
Step          Temp          Press          PotEng        Density         KinEng         TotEng           Lx             Ly             Lz            Xlo            Xhi            Ylo            Yhi            Zlo            Zhi           Volume           Dt            Time           CPU           T/CPU          S/CPU         CPULeft
5860000   336.99798      3.0887724     -9781656.2      1.3893465      1003.5224     -9780652.6      678.9738       678.9738       678.9738       1660.5131      2339.4869      1660.5131      2339.4869      1660.5131      2339.4869      3.130106e+08   0.25           1510000        0              0              0              0
Loop time of 1.29052 on 4 procs for 20000 steps with 1000 atoms

unfix 2

fix 3 all nvt temp 370000 370000 $(100.0*dt) #iso 1.0 1.0 $(1000.0*dt)
fix 3 all nvt temp 370000 370000 25

run 100000
Generated 0 of 1 mixed pair_coeff terms from geometric mixing rule
Step          Temp          Press          PotEng        Density         KinEng         TotEng           Lx             Ly             Lz            Xlo            Xhi            Ylo            Yhi            Zlo            Zhi           Volume           Dt            Time           CPU           T/CPU          S/CPU         CPULeft
5880000   367897.67      159.12124     -9669577.3      1.3893465      1095536.4     -8574040.9      678.9738       678.9738       678.9738       1660.5131      2339.4869      1660.5131      2339.4869      1660.5131      2339.4869      3.130106e+08   0.25           1515000        0              0              0              0
Averages over the last 11 of 21 rows, steps 5930000 to 5980000:
Temp Press PotEng Density KinEng TotEng Lx Ly Lz Xlo Xhi Ylo Yhi Zlo Zhi Volume Dt
369971 161.816 -9.70272e+06 1.38935 1.10171e+06 -8.60101e+06 678.974 678.974 678.974 1660.51 2339.49 1660.51 2339.49 1660.51 2339.49 3.13011e+08 0.25
Loop time of 6.51005 on 4 procs for 100000 steps with 1000 atoms

unfix 3

fix 4 all nvt temp 370000 300 100.0

run 20000
Generated 0 of 1 mixed pair_coeff terms from geometric mixing rule
Step          Temp          Press          PotEng        Density         KinEng         TotEng           Lx             Ly             Lz            Xlo            Xhi            Ylo            Yhi            Zlo            Zhi           Volume           Dt            Time           CPU           T/CPU          S/CPU         CPULeft
5980000   377763.53      146.80607     -9642393.4      1.3893465      1124915.3     -8517478.1      678.9738       678.9738       678.9738       1660.5131      2339.4869      1660.5131      2339.4869      1660.5131      2339.4869      3.130106e+08   0.25           1540000        0              0              0              0
Loop time of 1.27179 on 4 procs for 20000 steps with 1000 atoms

unfix 4

fix 5 all npt temp 300 300 $(100.0*dt) iso 1.0 1.0 $(1000.0*dt)
fix 5 all npt temp 300 300 25 iso 1.0 1.0 $(1000.0*dt)
fix 5 all npt temp 300 300 25 iso 1.0 1.0 250

run 60000
Generated 0 of 1 mixed pair_coeff terms from geometric mixing rule
Step          Temp          Press          PotEng        Density         KinEng         TotEng           Lx             Ly             Lz            Xlo            Xhi            Ylo            Yhi            Zlo            Zhi           Volume           Dt            Time           CPU           T/CPU          S/CPU         CPULeft
6000000   8664.8081     -492.94758     -9847205        1.3893465      25802.319     -9821402.7      678.9738       678.9738       678.9738       1660.5131      2339.4869      1660.5131      2339.4869      1660.5131      2339.4869      3.130106e+08   0.25           1545000        0              0              0              0
Averages over the last 7 of 13 rows, steps 6030000 to 6060000:
Temp Press PotEng Density KinEng TotEng Lx Ly Lz Xlo Xhi Ylo Yhi Zlo Zhi Volume Dt
339.021 2.0346 -1.02942e+07 1.47889 1009.55 -1.02932e+07 664.988 664.988 664.988 1667.51 2332.49 1667.51 2332.49 1667.51 2332.49 2.94066e+08 0.25
Loop time of 4.62401 on 4 procs for 60000 steps with 1000 atoms

# run_style
run_style verlet

# write restart
write_restart ./pgnpmf/82/equpmf30.res
System init for write_restart ...
Generated 0 of 1 mixed pair_coeff terms from geometric mixing rule
