LAMMPS (23 Jun 2022 - Update 1)
# Read restart
read_restart ./pgnpmf/82/equpmf6.res
Reading restart file ...
  restart file = 23 Jun 2022, LAMMPS = 23 Jun 2022
  restoring atom style atomic from restart
  orthogonal box = (1020.5399 1020.5399 1020.5399) to (2979.4601 2979.4601 2979.4601)
  restoring pair style table from restart
  1000 atoms
  read_restart CPU = 0.004 seconds

# Settings

pair_style table spline 9941

pair_coeff 1 1 ./pgnpmf/N20.txt DE_GNP 75.6
pair_coeff 2 2 ./pgnpmf/N100.txt DE_GNP 115.92
pair_coeff 1 2 ./pgnpmf/mixed_potential.txt DE_GNP 95.66

#Neigh_list Calc Frequency

neigh_modify delay 0 every 1 check yes

# Saving Frequency (50 frames)

variable ts_save equal 5000

variable nts equal 5000/0.25
variable medium equal 20000*3
variable long equal 20000*5

# Dump
#dump_modify 1 first no sort id
dump 2 all cfg 50000 ./pgnpmf/82/equilibration/trajectory/dumpequ.tens_*.cfg mass type xs ys zs fx fy fz
dump_modify 2 element N20 N100

# thermo_style
thermo_style custom step temp press pe density ke etotal lx ly lz xlo xhi ylo yhi zlo zhi vol dt time cpu tpcpu spcpu cpuremain

# run info
timestep 0.25
thermo 5000

# fix

fix 1 all momentum 1000 linear 1 1 1 angular
variable T equal 300
fix 2 all nvt temp 300 370000 100.0

run 20000
Generated 0 of 1 mixed pair_coeff terms from geometric mixing rule
Unused restart file global fix info:
  fix style: npt, fix ID: 5
  update every 1 steps, delay 0 steps, check yes
Step          Temp          Press          PotEng        Density         KinEng         TotEng           Lx             Ly             Lz            Xlo            Xhi            Ylo            Yhi            Zlo            Zhi           Volume           Dt            Time           CPU           T/CPU          S/CPU         CPULeft
1260000   320.88508      1.0077267     -1212547.7      0.057852138    955.54096     -1211592.1      1958.9202      1958.9202      1958.9202      1020.5399      2979.4601      1020.5399      2979.4601      1020.5399      2979.4601      7.5170981e+09  0.25           360000         0              0              0              0
Loop time of 0.459979 on 4 procs for 20000 steps with 1000 atoms

unfix 2

fix 3 all nvt temp 370000 370000 $(100.0*dt) #iso 1.0 1.0 $(1000.0*dt)
fix 3 all nvt temp 370000 370000 25

run 100000
Generated 0 of 1 mixed pair_coeff terms from geometric mixing rule
Step          Temp          Press          PotEng        Density         KinEng         TotEng           Lx             Ly             Lz            Xlo            Xhi            Ylo            Yhi            Zlo            Zhi           Volume           Dt            Time           CPU           T/CPU          S/CPU         CPULeft
1280000   377169.5       10.327007     -1160466.7      0.057852138    1123146.4     -37320.333      1958.9202      1958.9202      1958.9202      1020.5399      2979.4601      1020.5399      2979.4601      1020.5399      2979.4601      7.5170981e+09  0.25           365000         0              0              0              0
Averages over the last 11 of 21 rows, steps 1330000 to 1380000:
Temp Press PotEng Density KinEng TotEng Lx Ly Lz Xlo Xhi Ylo Yhi Zlo Zhi Volume Dt
365412 6.96997 -1.08826e+06 0.0578521 1.08813e+06 -131.66 1958.92 1958.92 1958.92 1020.54 2979.46 1020.54 2979.46 1020.54 2979.46 7.5171e+09 0.25
Loop time of 2.39543 on 4 procs for 100000 steps with 1000 atoms

unfix 3

fix 4 all nvt temp 370000 300 100.0

run 20000
Generated 0 of 1 mixed pair_coeff terms from geometric mixing rule
Step          Temp          Press          PotEng        Density         KinEng         TotEng           Lx             Ly             Lz            Xlo            Xhi            Ylo            Yhi            Zlo            Zhi           Volume           Dt            Time           CPU           T/CPU          S/CPU         CPULeft
1380000   367093.59      6.4390517     -1024848.3      0.057852138    1093142        68293.771      1958.9202      1958.9202      1958.9202      1020.5399      2979.4601      1020.5399      2979.4601      1020.5399      2979.4601      7.5170981e+09  0.25           390000         0              0              0              0
Loop time of 0.438803 on 4 procs for 20000 steps with 1000 atoms

unfix 4

fix 5 all npt temp 300 300 $(100.0*dt) iso 1.0 1.0 $(1000.0*dt)
fix 5 all npt temp 300 300 25 iso 1.0 1.0 $(1000.0*dt)
fix 5 all npt temp 300 300 25 iso 1.0 1.0 250

run 60000
Generated 0 of 1 mixed pair_coeff terms from geometric mixing rule
Step          Temp          Press          PotEng        Density         KinEng         TotEng           Lx             Ly             Lz            Xlo            Xhi            Ylo            Yhi            Zlo            Zhi           Volume           Dt            Time           CPU           T/CPU          S/CPU         CPULeft
1400000   7931.5572     -2.1994279     -947630.69      0.057852138    23618.823     -924011.87      1958.9202      1958.9202      1958.9202      1020.5399      2979.4601      1020.5399      2979.4601      1020.5399      2979.4601      7.5170981e+09  0.25           395000         0              0              0              0
Averages over the last 7 of 13 rows, steps 1430000 to 1460000:
Temp Press PotEng Density KinEng TotEng Lx Ly Lz Xlo Xhi Ylo Yhi Zlo Zhi Volume Dt
322.54 0.997721 -1.2949e+06 0.0702538 960.468 -1.29394e+06 1836.35 1836.35 1836.35 1081.83 2918.17 1081.83 2918.17 1081.83 2918.17 6.19363e+09 0.25
Loop time of 2.04143 on 4 procs for 60000 steps with 1000 atoms

# run_style
run_style verlet

# write restart
write_restart ./pgnpmf/82/equpmf7.res
System init for write_restart ...
Generated 0 of 1 mixed pair_coeff terms from geometric mixing rule
