LAMMPS (23 Jun 2022 - Update 1)
# Read restart
read_restart ./pgnpmf/82/equpmf58.res
Reading restart file ...
  restart file = 23 Jun 2022, LAMMPS = 23 Jun 2022
  restoring atom style atomic from restart
  orthogonal box = (1716.7025 1716.7025 1716.7025) to (2283.2975 2283.2975 2283.2975)
  restoring pair style table from restart
  1000 atoms
  read_restart CPU = 0.009 seconds

# Settings

pair_style table spline 9941

pair_coeff 1 1 ./pgnpmf/N20.txt DE_GNP 75.6
pair_coeff 2 2 ./pgnpmf/N100.txt DE_GNP 115.92
pair_coeff 1 2 ./pgnpmf/mixed_potential.txt DE_GNP 95.66

#Neigh_list Calc Frequency

neigh_modify delay 0 every 1 check yes

# Saving Frequency (50 frames)

variable ts_save equal 5000

# Dump
#dump_modify 1 first no sort id
dump 2 all cfg 50000 ./pgnpmf/82/equilibration/trajectory/dumpgen.tens_*.cfg mass type xs ys zs fx fy fz
dump_modify 2 element N20 N100

# thermo_style
thermo_style custom step temp press pe density ke etotal lx ly lz xlo xhi ylo yhi zlo zhi vol dt time cpu tpcpu spcpu cpuremain

# run info
timestep 0.5
thermo 200

# fix

fix 1 all momentum 1000 linear 1 1 1 angular
variable T equal 300
fix 2 all nvt temp 300 370000 100.0

run 100000
Generated 0 of 1 mixed pair_coeff terms from geometric mixing rule
Unused restart file global fix info:
  fix style: npt, fix ID: 5
  update every 1 steps, delay 0 steps, check yes
Step          Temp          Press          PotEng        Density         KinEng         TotEng           Lx             Ly             Lz            Xlo            Xhi            Ylo            Yhi            Zlo            Zhi           Volume           Dt            Time           CPU           T/CPU          S/CPU         CPULeft
41010000   300.62433      1.4881264     -16197359       2.3908441      895.20792     -16196463       566.59507      566.59507      566.59507      1716.7025      2283.2975      1716.7025      2283.2975      1716.7025      2283.2975      1.81894e+08    0.5            20710000       0              0              0              0
Averages over the last 251 of 501 rows, steps 41060000 to 41110000:
Temp Press PotEng Density KinEng TotEng Lx Ly Lz Xlo Xhi Ylo Yhi Zlo Zhi Volume Dt
277848 3430.81 -1.54015e+07 2.39084 827382 -1.45741e+07 566.595 566.595 566.595 1716.7 2283.3 1716.7 2283.3 1716.7 2283.3 1.81894e+08 0.5
Loop time of 6.14111 on 4 procs for 100000 steps with 1000 atoms

unfix 2

fix 3 all nvt temp 370000 370000 $(100.0*dt) #iso 1.0 1.0 $(1000.0*dt)
fix 3 all nvt temp 370000 370000 50

run 200000
Generated 0 of 1 mixed pair_coeff terms from geometric mixing rule
Step          Temp          Press          PotEng        Density         KinEng         TotEng           Lx             Ly             Lz            Xlo            Xhi            Ylo            Yhi            Zlo            Zhi           Volume           Dt            Time           CPU           T/CPU          S/CPU         CPULeft
41110000   376771.1       4413.1586     -15191814       2.3908441      1121960       -14069854       566.59507      566.59507      566.59507      1716.7025      2283.2975      1716.7025      2283.2975      1716.7025      2283.2975      1.81894e+08    0.5            20760000       0              0              0              0
Averages over the last 501 of 1001 rows, steps 41210000 to 41310000:
Temp Press PotEng Density KinEng TotEng Lx Ly Lz Xlo Xhi Ylo Yhi Zlo Zhi Volume Dt
370070 4276.83 -1.50935e+07 2.39084 1.102e+06 -1.39915e+07 566.595 566.595 566.595 1716.7 2283.3 1716.7 2283.3 1716.7 2283.3 1.81894e+08 0.5
Loop time of 12.4211 on 4 procs for 200000 steps with 1000 atoms

unfix 3

fix 4 all nvt temp 370000 300 100.0

run 100000
Generated 0 of 1 mixed pair_coeff terms from geometric mixing rule
Step          Temp          Press          PotEng        Density         KinEng         TotEng           Lx             Ly             Lz            Xlo            Xhi            Ylo            Yhi            Zlo            Zhi           Volume           Dt            Time           CPU           T/CPU          S/CPU         CPULeft
41310000   346311.95      4278.0156     -15123086       2.3908441      1031257.9     -14091828       566.59507      566.59507      566.59507      1716.7025      2283.2975      1716.7025      2283.2975      1716.7025      2283.2975      1.81894e+08    0.5            20860000       0              0              0              0
Averages over the last 251 of 501 rows, steps 41360000 to 41410000:
Temp Press PotEng Density KinEng TotEng Lx Ly Lz Xlo Xhi Ylo Yhi Zlo Zhi Volume Dt
93111.2 1303.99 -1.58194e+07 2.39084 277269 -1.55421e+07 566.595 566.595 566.595 1716.7 2283.3 1716.7 2283.3 1716.7 2283.3 1.81894e+08 0.5
Loop time of 6.16424 on 4 procs for 100000 steps with 1000 atoms

unfix 4

fix 5 all npt temp 300 300 $(100.0*dt) iso 1.0 1.0 $(1000.0*dt)
fix 5 all npt temp 300 300 50 iso 1.0 1.0 $(1000.0*dt)
fix 5 all npt temp 300 300 50 iso 1.0 1.0 500

run 300000
Generated 0 of 1 mixed pair_coeff terms from geometric mixing rule
Step          Temp          Press          PotEng        Density         KinEng         TotEng           Lx             Ly             Lz            Xlo            Xhi            Ylo            Yhi            Zlo            Zhi           Volume           Dt            Time           CPU           T/CPU          S/CPU         CPULeft
41410000   1400.3492      187.13558     -16096814       2.3908441      4170.0007     -16092644       566.59507      566.59507      566.59507      1716.7025      2283.2975      1716.7025      2283.2975      1716.7025      2283.2975      1.81894e+08    0.5            20910000       0              0              0              0
Averages over the last 751 of 1501 rows, steps 41560000 to 41710000:
Temp Press PotEng Density KinEng TotEng Lx Ly Lz Xlo Xhi Ylo Yhi Zlo Zhi Volume Dt
300.054 1.20695 -1.6144e+07 2.38952 893.51 -1.61431e+07 566.7 566.7 566.7 1716.65 2283.35 1716.65 2283.35 1716.65 2283.35 1.81995e+08 0.5
Loop time of 21.6153 on 4 procs for 300000 steps with 1000 atoms

# run_style
run_style verlet

# write restart
write_restart ./pgnpmf/82/equpmf59.res
System init for write_restart ...
Generated 0 of 1 mixed pair_coeff terms from geometric mixing rule
