LAMMPS (23 Jun 2022 - Update 1)
# Read restart
read_restart ./pgnpmf/82/equpmf29.res
Reading restart file ...
  restart file = 23 Jun 2022, LAMMPS = 23 Jun 2022
  restoring atom style atomic from restart
  orthogonal box = (1716.4697 1716.4697 1716.4697) to (2283.5303 2283.5303 2283.5303)
  restoring pair style table from restart
  1000 atoms
  read_restart CPU = 0.008 seconds

# Settings

pair_style table spline 9941

pair_coeff 1 1 ./pgnpmf/N20.txt DE_GNP 75.6
pair_coeff 2 2 ./pgnpmf/N100.txt DE_GNP 115.92
pair_coeff 1 2 ./pgnpmf/mixed_potential.txt DE_GNP 95.66

#Neigh_list Calc Frequency

neigh_modify delay 0 every 1 check yes

# Saving Frequency (50 frames)

variable ts_save equal 5000

# Dump
#dump_modify 1 first no sort id
dump 2 all cfg 50000 ./pgnpmf/82/equilibration/trajectory/dumpgen.tens_*.cfg mass type xs ys zs fx fy fz
dump_modify 2 element N20 N100

# thermo_style
thermo_style custom step temp press pe density ke etotal lx ly lz xlo xhi ylo yhi zlo zhi vol dt time cpu tpcpu spcpu cpuremain

# run info
timestep 0.5
thermo 200

# fix

fix 1 all momentum 1000 linear 1 1 1 angular
variable T equal 300
fix 2 all nvt temp 300 370000 100.0

run 100000
Generated 0 of 1 mixed pair_coeff terms from geometric mixing rule
Unused restart file global fix info:
  fix style: npt, fix ID: 5
  update every 1 steps, delay 0 steps, check yes
Step          Temp          Press          PotEng        Density         KinEng         TotEng           Lx             Ly             Lz            Xlo            Xhi            Ylo            Yhi            Zlo            Zhi           Volume           Dt            Time           CPU           T/CPU          S/CPU         CPULeft
20710000   309.37771     -2.7562927     -16122143       2.3849596      921.27398     -16121222       567.06068      567.06068      567.06068      1716.4697      2283.5303      1716.4697      2283.5303      1716.4697      2283.5303      1.8234279e+08  0.5            10560000       0              0              0              0
Averages over the last 251 of 501 rows, steps 20760000 to 20810000:
Temp Press PotEng Density KinEng TotEng Lx Ly Lz Xlo Xhi Ylo Yhi Zlo Zhi Volume Dt
277295 3430.2 -1.53611e+07 2.38496 825737 -1.45354e+07 567.061 567.061 567.061 1716.47 2283.53 1716.47 2283.53 1716.47 2283.53 1.82343e+08 0.5
Loop time of 6.33361 on 4 procs for 100000 steps with 1000 atoms

unfix 2

fix 3 all nvt temp 370000 370000 $(100.0*dt) #iso 1.0 1.0 $(1000.0*dt)
fix 3 all nvt temp 370000 370000 50

run 200000
Generated 0 of 1 mixed pair_coeff terms from geometric mixing rule
Step          Temp          Press          PotEng        Density         KinEng         TotEng           Lx             Ly             Lz            Xlo            Xhi            Ylo            Yhi            Zlo            Zhi           Volume           Dt            Time           CPU           T/CPU          S/CPU         CPULeft
20810000   355334.38      4249.8528     -15078892       2.3849596      1058125.1     -14020767       567.06068      567.06068      567.06068      1716.4697      2283.5303      1716.4697      2283.5303      1716.4697      2283.5303      1.8234279e+08  0.5            10610000       0              0              0              0
Averages over the last 501 of 1001 rows, steps 20910000 to 21010000:
Temp Press PotEng Density KinEng TotEng Lx Ly Lz Xlo Xhi Ylo Yhi Zlo Zhi Volume Dt
369789 4252.3 -1.50652e+07 2.38496 1.10117e+06 -1.3964e+07 567.061 567.061 567.061 1716.47 2283.53 1716.47 2283.53 1716.47 2283.53 1.82343e+08 0.5
Loop time of 12.2871 on 4 procs for 200000 steps with 1000 atoms

unfix 3

fix 4 all nvt temp 370000 300 100.0

run 100000
Generated 0 of 1 mixed pair_coeff terms from geometric mixing rule
Step          Temp          Press          PotEng        Density         KinEng         TotEng           Lx             Ly             Lz            Xlo            Xhi            Ylo            Yhi            Zlo            Zhi           Volume           Dt            Time           CPU           T/CPU          S/CPU         CPULeft
21010000   366832.38      4251.2418     -15093877       2.3849596      1092364.2     -14001513       567.06068      567.06068      567.06068      1716.4697      2283.5303      1716.4697      2283.5303      1716.4697      2283.5303      1.8234279e+08  0.5            10710000       0              0              0              0
Averages over the last 251 of 501 rows, steps 21060000 to 21110000:
Temp Press PotEng Density KinEng TotEng Lx Ly Lz Xlo Xhi Ylo Yhi Zlo Zhi Volume Dt
92849.7 1250.3 -1.5825e+07 2.38496 276491 -1.55485e+07 567.061 567.061 567.061 1716.47 2283.53 1716.47 2283.53 1716.47 2283.53 1.82343e+08 0.5
Loop time of 6.09871 on 4 procs for 100000 steps with 1000 atoms

unfix 4

fix 5 all npt temp 300 300 $(100.0*dt) iso 1.0 1.0 $(1000.0*dt)
fix 5 all npt temp 300 300 50 iso 1.0 1.0 $(1000.0*dt)
fix 5 all npt temp 300 300 50 iso 1.0 1.0 500

run 300000
Generated 0 of 1 mixed pair_coeff terms from geometric mixing rule
Step          Temp          Press          PotEng        Density         KinEng         TotEng           Lx             Ly             Lz            Xlo            Xhi            Ylo            Yhi            Zlo            Zhi           Volume           Dt            Time           CPU           T/CPU          S/CPU         CPULeft
21110000   1394.0881      187.62448     -16081462       2.3849596      4151.3562     -16077310       567.06068      567.06068      567.06068      1716.4697      2283.5303      1716.4697      2283.5303      1716.4697      2283.5303      1.8234279e+08  0.5            10760000       0              0              0              0
Averages over the last 751 of 1501 rows, steps 21260000 to 21410000:
Temp Press PotEng Density KinEng TotEng Lx Ly Lz Xlo Xhi Ylo Yhi Zlo Zhi Volume Dt
300.252 1.11818 -1.61716e+07 2.38388 894.099 -1.61707e+07 567.146 567.146 567.146 1716.43 2283.57 1716.43 2283.57 1716.43 2283.57 1.82425e+08 0.5
Loop time of 21.2604 on 4 procs for 300000 steps with 1000 atoms

# run_style
run_style verlet

# write restart
write_restart ./pgnpmf/82/equpmf30.res
System init for write_restart ...
Generated 0 of 1 mixed pair_coeff terms from geometric mixing rule
