LAMMPS (23 Jun 2022 - Update 1)
# Read restart
read_restart ./pgnpmf/82/equpmf6.res
Reading restart file ...
  restart file = 23 Jun 2022, LAMMPS = 23 Jun 2022
  restoring atom style atomic from restart
  orthogonal box = (1558.1035 1558.1035 1558.1035) to (2441.8965 2441.8965 2441.8965)
  restoring pair style table from restart
  1000 atoms
  read_restart CPU = 0.007 seconds

# Settings

pair_style table spline 9941

pair_coeff 1 1 ./pgnpmf/N20.txt DE_GNP 75.6
pair_coeff 2 2 ./pgnpmf/N100.txt DE_GNP 115.92
pair_coeff 1 2 ./pgnpmf/mixed_potential.txt DE_GNP 95.66

#Neigh_list Calc Frequency

neigh_modify delay 0 every 1 check yes

# Saving Frequency (50 frames)

variable ts_save equal 5000

# Dump
#dump_modify 1 first no sort id
dump 2 all cfg 50000 ./pgnpmf/82/equilibration/trajectory/dumpgen.tens_*.cfg mass type xs ys zs fx fy fz
dump_modify 2 element N20 N100

# thermo_style
thermo_style custom step temp press pe density ke etotal lx ly lz xlo xhi ylo yhi zlo zhi vol dt time cpu tpcpu spcpu cpuremain

# run info
timestep 0.5
thermo 200

# fix

fix 1 all momentum 1000 linear 1 1 1 angular
variable T equal 300
fix 2 all nvt temp 300 370000 100.0

run 100000
Generated 0 of 1 mixed pair_coeff terms from geometric mixing rule
Unused restart file global fix info:
  fix style: npt, fix ID: 5
  update every 1 steps, delay 0 steps, check yes
Step          Temp          Press          PotEng        Density         KinEng         TotEng           Lx             Ly             Lz            Xlo            Xhi            Ylo            Yhi            Zlo            Zhi           Volume           Dt            Time           CPU           T/CPU          S/CPU         CPULeft
4610000   314.49403      2.5855216     -7248608        0.6299672      936.50952     -7247671.5      883.79302      883.79302      883.79302      1558.1035      2441.8965      1558.1035      2441.8965      1558.1035      2441.8965      6.9032197e+08  0.5            2510000        0              0              0              0
Averages over the last 251 of 501 rows, steps 4660000 to 4710000:
Temp Press PotEng Density KinEng TotEng Lx Ly Lz Xlo Xhi Ylo Yhi Zlo Zhi Volume Dt
277501 46.0201 -7.38293e+06 0.629967 826349 -6.55659e+06 883.793 883.793 883.793 1558.1 2441.9 1558.1 2441.9 1558.1 2441.9 6.90322e+08 0.5
Loop time of 3.51395 on 4 procs for 100000 steps with 1000 atoms

unfix 2

fix 3 all nvt temp 370000 370000 $(100.0*dt) #iso 1.0 1.0 $(1000.0*dt)
fix 3 all nvt temp 370000 370000 50

run 200000
Generated 0 of 1 mixed pair_coeff terms from geometric mixing rule
Step          Temp          Press          PotEng        Density         KinEng         TotEng           Lx             Ly             Lz            Xlo            Xhi            Ylo            Yhi            Zlo            Zhi           Volume           Dt            Time           CPU           T/CPU          S/CPU         CPULeft
4710000   365963.47      63.914449     -7227034.6      0.6299672      1089776.7     -6137257.9      883.79302      883.79302      883.79302      1558.1035      2441.8965      1558.1035      2441.8965      1558.1035      2441.8965      6.9032197e+08  0.5            2560000        0              0              0              0
Averages over the last 501 of 1001 rows, steps 4810000 to 4910000:
Temp Press PotEng Density KinEng TotEng Lx Ly Lz Xlo Xhi Ylo Yhi Zlo Zhi Volume Dt
369993 44.6706 -6.81233e+06 0.629967 1.10178e+06 -5.71056e+06 883.793 883.793 883.793 1558.1 2441.9 1558.1 2441.9 1558.1 2441.9 6.90322e+08 0.5
Loop time of 7.01703 on 4 procs for 200000 steps with 1000 atoms

unfix 3

fix 4 all nvt temp 370000 300 100.0

run 100000
Generated 0 of 1 mixed pair_coeff terms from geometric mixing rule
Step          Temp          Press          PotEng        Density         KinEng         TotEng           Lx             Ly             Lz            Xlo            Xhi            Ylo            Yhi            Zlo            Zhi           Volume           Dt            Time           CPU           T/CPU          S/CPU         CPULeft
4910000   363334.53      62.985766     -6773320.1      0.6299672      1081948.2     -5691371.9      883.79302      883.79302      883.79302      1558.1035      2441.8965      1558.1035      2441.8965      1558.1035      2441.8965      6.9032197e+08  0.5            2660000        0              0              0              0
Averages over the last 251 of 501 rows, steps 4960000 to 5010000:
Temp Press PotEng Density KinEng TotEng Lx Ly Lz Xlo Xhi Ylo Yhi Zlo Zhi Volume Dt
92932.5 -75.9236 -7.43549e+06 0.629967 276737 -7.15875e+06 883.793 883.793 883.793 1558.1 2441.9 1558.1 2441.9 1558.1 2441.9 6.90322e+08 0.5
Loop time of 3.26933 on 4 procs for 100000 steps with 1000 atoms

unfix 4

fix 5 all npt temp 300 300 $(100.0*dt) iso 1.0 1.0 $(1000.0*dt)
fix 5 all npt temp 300 300 50 iso 1.0 1.0 $(1000.0*dt)
fix 5 all npt temp 300 300 50 iso 1.0 1.0 500

run 300000
Generated 0 of 1 mixed pair_coeff terms from geometric mixing rule
Step          Temp          Press          PotEng        Density         KinEng         TotEng           Lx             Ly             Lz            Xlo            Xhi            Ylo            Yhi            Zlo            Zhi           Volume           Dt            Time           CPU           T/CPU          S/CPU         CPULeft
5010000   1378.9441     -122.64835     -7792787.2      0.6299672      4106.2601     -7788680.9      883.79302      883.79302      883.79302      1558.1035      2441.8965      1558.1035      2441.8965      1558.1035      2441.8965      6.9032197e+08  0.5            2710000        0              0              0              0
Averages over the last 751 of 1501 rows, steps 5160000 to 5310000:
Temp Press PotEng Density KinEng TotEng Lx Ly Lz Xlo Xhi Ylo Yhi Zlo Zhi Volume Dt
315.504 1.04179 -8.37838e+06 0.719845 939.516 -8.37744e+06 845.416 845.416 845.416 1577.29 2422.71 1577.29 2422.71 1577.29 2422.71 6.04298e+08 0.5
Loop time of 13.5796 on 4 procs for 300000 steps with 1000 atoms

# run_style
run_style verlet

# write restart
write_restart ./pgnpmf/82/equpmf7.res
System init for write_restart ...
Generated 0 of 1 mixed pair_coeff terms from geometric mixing rule
