LAMMPS (23 Jun 2022 - Update 1)
# Read restart
read_restart ./pgnpmf/82/equpmf51.res
Reading restart file ...
  restart file = 23 Jun 2022, LAMMPS = 23 Jun 2022
  restoring atom style atomic from restart
  orthogonal box = (1716.7079 1716.7079 1716.7079) to (2283.2921 2283.2921 2283.2921)
  restoring pair style table from restart
  1000 atoms
  read_restart CPU = 0.008 seconds

# Settings

pair_style table spline 9941

pair_coeff 1 1 ./pgnpmf/N20.txt DE_GNP 75.6
pair_coeff 2 2 ./pgnpmf/N100.txt DE_GNP 115.92
pair_coeff 1 2 ./pgnpmf/mixed_potential.txt DE_GNP 95.66

#Neigh_list Calc Frequency

neigh_modify delay 0 every 1 check yes

# Saving Frequency (50 frames)

variable ts_save equal 5000

# Dump
#dump_modify 1 first no sort id
dump 2 all cfg 50000 ./pgnpmf/82/equilibration/trajectory/dumpgen.tens_*.cfg mass type xs ys zs fx fy fz
dump_modify 2 element N20 N100

# thermo_style
thermo_style custom step temp press pe density ke etotal lx ly lz xlo xhi ylo yhi zlo zhi vol dt time cpu tpcpu spcpu cpuremain

# run info
timestep 0.5
thermo 200

# fix

fix 1 all momentum 1000 linear 1 1 1 angular
variable T equal 300
fix 2 all nvt temp 300 370000 100.0

run 100000
Generated 0 of 1 mixed pair_coeff terms from geometric mixing rule
Unused restart file global fix info:
  fix style: npt, fix ID: 5
  update every 1 steps, delay 0 steps, check yes
Step          Temp          Press          PotEng        Density         KinEng         TotEng           Lx             Ly             Lz            Xlo            Xhi            Ylo            Yhi            Zlo            Zhi           Volume           Dt            Time           CPU           T/CPU          S/CPU         CPULeft
36110000   303.9839       2.7781976     -16162930       2.3909812      905.21215     -16162025       566.58424      566.58424      566.58424      1716.7079      2283.2921      1716.7079      2283.2921      1716.7079      2283.2921      1.8188357e+08  0.5            18260000       0              0              0              0
Averages over the last 251 of 501 rows, steps 36160000 to 36210000:
Temp Press PotEng Density KinEng TotEng Lx Ly Lz Xlo Xhi Ylo Yhi Zlo Zhi Volume Dt
277549 3481.34 -1.53755e+07 2.39098 826492 -1.4549e+07 566.584 566.584 566.584 1716.71 2283.29 1716.71 2283.29 1716.71 2283.29 1.81884e+08 0.5
Loop time of 6.32269 on 4 procs for 100000 steps with 1000 atoms

unfix 2

fix 3 all nvt temp 370000 370000 $(100.0*dt) #iso 1.0 1.0 $(1000.0*dt)
fix 3 all nvt temp 370000 370000 50

run 200000
Generated 0 of 1 mixed pair_coeff terms from geometric mixing rule
Step          Temp          Press          PotEng        Density         KinEng         TotEng           Lx             Ly             Lz            Xlo            Xhi            Ylo            Yhi            Zlo            Zhi           Volume           Dt            Time           CPU           T/CPU          S/CPU         CPULeft
36210000   362282.7       4103.6657     -15311988       2.3909812      1078816       -14233172       566.58424      566.58424      566.58424      1716.7079      2283.2921      1716.7079      2283.2921      1716.7079      2283.2921      1.8188357e+08  0.5            18310000       0              0              0              0
Averages over the last 501 of 1001 rows, steps 36310000 to 36410000:
Temp Press PotEng Density KinEng TotEng Lx Ly Lz Xlo Xhi Ylo Yhi Zlo Zhi Volume Dt
370162 4316.14 -1.51119e+07 2.39098 1.10228e+06 -1.40096e+07 566.584 566.584 566.584 1716.71 2283.29 1716.71 2283.29 1716.71 2283.29 1.81884e+08 0.5
Loop time of 12.7134 on 4 procs for 200000 steps with 1000 atoms

unfix 3

fix 4 all nvt temp 370000 300 100.0

run 100000
Generated 0 of 1 mixed pair_coeff terms from geometric mixing rule
Step          Temp          Press          PotEng        Density         KinEng         TotEng           Lx             Ly             Lz            Xlo            Xhi            Ylo            Yhi            Zlo            Zhi           Volume           Dt            Time           CPU           T/CPU          S/CPU         CPULeft
36410000   373237.04      4385.7065     -15065017       2.3909812      1111436.2     -13953581       566.58424      566.58424      566.58424      1716.7079      2283.2921      1716.7079      2283.2921      1716.7079      2283.2921      1.8188357e+08  0.5            18410000       0              0              0              0
Averages over the last 251 of 501 rows, steps 36460000 to 36510000:
Temp Press PotEng Density KinEng TotEng Lx Ly Lz Xlo Xhi Ylo Yhi Zlo Zhi Volume Dt
93084 1251.51 -1.58384e+07 2.39098 277188 -1.55613e+07 566.584 566.584 566.584 1716.71 2283.29 1716.71 2283.29 1716.71 2283.29 1.81884e+08 0.5
Loop time of 6.38991 on 4 procs for 100000 steps with 1000 atoms

unfix 4

fix 5 all npt temp 300 300 $(100.0*dt) iso 1.0 1.0 $(1000.0*dt)
fix 5 all npt temp 300 300 50 iso 1.0 1.0 $(1000.0*dt)
fix 5 all npt temp 300 300 50 iso 1.0 1.0 500

run 300000
Generated 0 of 1 mixed pair_coeff terms from geometric mixing rule
Step          Temp          Press          PotEng        Density         KinEng         TotEng           Lx             Ly             Lz            Xlo            Xhi            Ylo            Yhi            Zlo            Zhi           Volume           Dt            Time           CPU           T/CPU          S/CPU         CPULeft
36510000   1379.5707      147.62427     -16092915       2.3909812      4108.1261     -16088807       566.58424      566.58424      566.58424      1716.7079      2283.2921      1716.7079      2283.2921      1716.7079      2283.2921      1.8188357e+08  0.5            18460000       0              0              0              0
Averages over the last 751 of 1501 rows, steps 36660000 to 36810000:
Temp Press PotEng Density KinEng TotEng Lx Ly Lz Xlo Xhi Ylo Yhi Zlo Zhi Volume Dt
300.257 1.27829 -1.61394e+07 2.38989 894.115 -1.61385e+07 566.67 566.67 566.67 1716.66 2283.34 1716.66 2283.34 1716.66 2283.34 1.81967e+08 0.5
Loop time of 22.8705 on 4 procs for 300000 steps with 1000 atoms

# run_style
run_style verlet

# write restart
write_restart ./pgnpmf/82/equpmf52.res
System init for write_restart ...
Generated 0 of 1 mixed pair_coeff terms from geometric mixing rule
