LAMMPS (23 Jun 2022 - Update 1)
# Read restart
read_restart ./pgnpmf/82/equpmf60.res
Reading restart file ...
  restart file = 23 Jun 2022, LAMMPS = 23 Jun 2022
  restoring atom style atomic from restart
  orthogonal box = (1716.6268 1716.6268 1716.6268) to (2283.3732 2283.3732 2283.3732)
  restoring pair style table from restart
  1000 atoms
  read_restart CPU = 0.007 seconds

# Settings

pair_style table spline 9941

pair_coeff 1 1 ./pgnpmf/N20.txt DE_GNP 75.6
pair_coeff 2 2 ./pgnpmf/N100.txt DE_GNP 115.92
pair_coeff 1 2 ./pgnpmf/mixed_potential.txt DE_GNP 95.66

#Neigh_list Calc Frequency

neigh_modify delay 0 every 1 check yes

# Saving Frequency (50 frames)

variable ts_save equal 5000

# Dump
#dump_modify 1 first no sort id
dump 2 all cfg 50000 ./pgnpmf/82/equilibration/trajectory/dumpgen.tens_*.cfg mass type xs ys zs fx fy fz
dump_modify 2 element N20 N100

# thermo_style
thermo_style custom step temp press pe density ke etotal lx ly lz xlo xhi ylo yhi zlo zhi vol dt time cpu tpcpu spcpu cpuremain

# run info
timestep 0.5
thermo 200

# fix

fix 1 all momentum 1000 linear 1 1 1 angular
variable T equal 300
fix 2 all nvt temp 300 370000 100.0

run 100000
Generated 0 of 1 mixed pair_coeff terms from geometric mixing rule
Unused restart file global fix info:
  fix style: npt, fix ID: 5
  update every 1 steps, delay 0 steps, check yes
Step          Temp          Press          PotEng        Density         KinEng         TotEng           Lx             Ly             Lz            Xlo            Xhi            Ylo            Yhi            Zlo            Zhi           Volume           Dt            Time           CPU           T/CPU          S/CPU         CPULeft
42410000   297.92014      2.1555874     -16172255       2.3889291      887.15531     -16171368       566.74643      566.74643      566.74643      1716.6268      2283.3732      1716.6268      2283.3732      1716.6268      2283.3732      1.8203981e+08  0.5            21410000       0              0              0              0
Averages over the last 251 of 501 rows, steps 42460000 to 42510000:
Temp Press PotEng Density KinEng TotEng Lx Ly Lz Xlo Xhi Ylo Yhi Zlo Zhi Volume Dt
277499 3563.62 -1.53649e+07 2.38893 826343 -1.45385e+07 566.746 566.746 566.746 1716.63 2283.37 1716.63 2283.37 1716.63 2283.37 1.8204e+08 0.5
Loop time of 6.42261 on 4 procs for 100000 steps with 1000 atoms

unfix 2

fix 3 all nvt temp 370000 370000 $(100.0*dt) #iso 1.0 1.0 $(1000.0*dt)
fix 3 all nvt temp 370000 370000 50

run 200000
Generated 0 of 1 mixed pair_coeff terms from geometric mixing rule
Step          Temp          Press          PotEng        Density         KinEng         TotEng           Lx             Ly             Lz            Xlo            Xhi            Ylo            Yhi            Zlo            Zhi           Volume           Dt            Time           CPU           T/CPU          S/CPU         CPULeft
42510000   356043.13      4353.6697     -15129280       2.3889291      1060235.7     -14069044       566.74643      566.74643      566.74643      1716.6268      2283.3732      1716.6268      2283.3732      1716.6268      2283.3732      1.8203981e+08  0.5            21460000       0              0              0              0
Averages over the last 501 of 1001 rows, steps 42610000 to 42710000:
Temp Press PotEng Density KinEng TotEng Lx Ly Lz Xlo Xhi Ylo Yhi Zlo Zhi Volume Dt
370119 4263.53 -1.51298e+07 2.38893 1.10215e+06 -1.40277e+07 566.746 566.746 566.746 1716.63 2283.37 1716.63 2283.37 1716.63 2283.37 1.8204e+08 0.5
Loop time of 13.2006 on 4 procs for 200000 steps with 1000 atoms

unfix 3

fix 4 all nvt temp 370000 300 100.0

run 100000
Generated 0 of 1 mixed pair_coeff terms from geometric mixing rule
Step          Temp          Press          PotEng        Density         KinEng         TotEng           Lx             Ly             Lz            Xlo            Xhi            Ylo            Yhi            Zlo            Zhi           Volume           Dt            Time           CPU           T/CPU          S/CPU         CPULeft
42710000   369344.5       4274.1561     -15172452       2.3889291      1099844.8     -14072607       566.74643      566.74643      566.74643      1716.6268      2283.3732      1716.6268      2283.3732      1716.6268      2283.3732      1.8203981e+08  0.5            21560000       0              0              0              0
Averages over the last 251 of 501 rows, steps 42760000 to 42810000:
Temp Press PotEng Density KinEng TotEng Lx Ly Lz Xlo Xhi Ylo Yhi Zlo Zhi Volume Dt
92975.1 1309.77 -1.58458e+07 2.38893 276864 -1.55689e+07 566.746 566.746 566.746 1716.63 2283.37 1716.63 2283.37 1716.63 2283.37 1.8204e+08 0.5
Loop time of 6.13307 on 4 procs for 100000 steps with 1000 atoms

unfix 4

fix 5 all npt temp 300 300 $(100.0*dt) iso 1.0 1.0 $(1000.0*dt)
fix 5 all npt temp 300 300 50 iso 1.0 1.0 $(1000.0*dt)
fix 5 all npt temp 300 300 50 iso 1.0 1.0 500

run 300000
Generated 0 of 1 mixed pair_coeff terms from geometric mixing rule
Step          Temp          Press          PotEng        Density         KinEng         TotEng           Lx             Ly             Lz            Xlo            Xhi            Ylo            Yhi            Zlo            Zhi           Volume           Dt            Time           CPU           T/CPU          S/CPU         CPULeft
42810000   1395.6723      235.8764      -16114810       2.3889291      4156.0738     -16110654       566.74643      566.74643      566.74643      1716.6268      2283.3732      1716.6268      2283.3732      1716.6268      2283.3732      1.8203981e+08  0.5            21610000       0              0              0              0
Averages over the last 751 of 1501 rows, steps 42960000 to 43110000:
Temp Press PotEng Density KinEng TotEng Lx Ly Lz Xlo Xhi Ylo Yhi Zlo Zhi Volume Dt
299.965 1.36909 -1.62114e+07 2.38707 893.245 -1.62105e+07 566.893 566.893 566.893 1716.55 2283.45 1716.55 2283.45 1716.55 2283.45 1.82181e+08 0.5
Loop time of 21.6638 on 4 procs for 300000 steps with 1000 atoms

# run_style
run_style verlet

# write restart
write_restart ./pgnpmf/82/equpmf61.res
System init for write_restart ...
Generated 0 of 1 mixed pair_coeff terms from geometric mixing rule
