LAMMPS (23 Jun 2022 - Update 1)
# Read restart
read_restart ./pgnpmf/82/equpmf53.res
Reading restart file ...
  restart file = 23 Jun 2022, LAMMPS = 23 Jun 2022
  restoring atom style atomic from restart
  orthogonal box = (1716.6554 1716.6554 1716.6554) to (2283.3446 2283.3446 2283.3446)
  restoring pair style table from restart
  1000 atoms
  read_restart CPU = 0.008 seconds

# Settings

pair_style table spline 9941

pair_coeff 1 1 ./pgnpmf/N20.txt DE_GNP 75.6
pair_coeff 2 2 ./pgnpmf/N100.txt DE_GNP 115.92
pair_coeff 1 2 ./pgnpmf/mixed_potential.txt DE_GNP 95.66

#Neigh_list Calc Frequency

neigh_modify delay 0 every 1 check yes

# Saving Frequency (50 frames)

variable ts_save equal 5000

# Dump
#dump_modify 1 first no sort id
dump 2 all cfg 50000 ./pgnpmf/82/equilibration/trajectory/dumpgen.tens_*.cfg mass type xs ys zs fx fy fz
dump_modify 2 element N20 N100

# thermo_style
thermo_style custom step temp press pe density ke etotal lx ly lz xlo xhi ylo yhi zlo zhi vol dt time cpu tpcpu spcpu cpuremain

# run info
timestep 0.5
thermo 200

# fix

fix 1 all momentum 1000 linear 1 1 1 angular
variable T equal 300
fix 2 all nvt temp 300 370000 100.0

run 100000
Generated 0 of 1 mixed pair_coeff terms from geometric mixing rule
Unused restart file global fix info:
  fix style: npt, fix ID: 5
  update every 1 steps, delay 0 steps, check yes
Step          Temp          Press          PotEng        Density         KinEng         TotEng           Lx             Ly             Lz            Xlo            Xhi            Ylo            Yhi            Zlo            Zhi           Volume           Dt            Time           CPU           T/CPU          S/CPU         CPULeft
37510000   297.40514     -6.226603      -16094545       2.3896525      885.62172     -16093659       566.68923      566.68923      566.68923      1716.6554      2283.3446      1716.6554      2283.3446      1716.6554      2283.3446      1.819847e+08   0.5            18960000       0              0              0              0
Averages over the last 251 of 501 rows, steps 37560000 to 37610000:
Temp Press PotEng Density KinEng TotEng Lx Ly Lz Xlo Xhi Ylo Yhi Zlo Zhi Volume Dt
277202 3378.88 -1.54521e+07 2.38965 825460 -1.46266e+07 566.689 566.689 566.689 1716.66 2283.34 1716.66 2283.34 1716.66 2283.34 1.81985e+08 0.5
Loop time of 6.34474 on 4 procs for 100000 steps with 1000 atoms

unfix 2

fix 3 all nvt temp 370000 370000 $(100.0*dt) #iso 1.0 1.0 $(1000.0*dt)
fix 3 all nvt temp 370000 370000 50

run 200000
Generated 0 of 1 mixed pair_coeff terms from geometric mixing rule
Step          Temp          Press          PotEng        Density         KinEng         TotEng           Lx             Ly             Lz            Xlo            Xhi            Ylo            Yhi            Zlo            Zhi           Volume           Dt            Time           CPU           T/CPU          S/CPU         CPULeft
37610000   380487.85      4174.802      -15241418       2.3896525      1133027.8     -14108390       566.68923      566.68923      566.68923      1716.6554      2283.3446      1716.6554      2283.3446      1716.6554      2283.3446      1.819847e+08   0.5            19010000       0              0              0              0
Averages over the last 501 of 1001 rows, steps 37710000 to 37810000:
Temp Press PotEng Density KinEng TotEng Lx Ly Lz Xlo Xhi Ylo Yhi Zlo Zhi Volume Dt
370064 4262.12 -1.50643e+07 2.38965 1.10199e+06 -1.39623e+07 566.689 566.689 566.689 1716.66 2283.34 1716.66 2283.34 1716.66 2283.34 1.81985e+08 0.5
Loop time of 12.6247 on 4 procs for 200000 steps with 1000 atoms

unfix 3

fix 4 all nvt temp 370000 300 100.0

run 100000
Generated 0 of 1 mixed pair_coeff terms from geometric mixing rule
Step          Temp          Press          PotEng        Density         KinEng         TotEng           Lx             Ly             Lz            Xlo            Xhi            Ylo            Yhi            Zlo            Zhi           Volume           Dt            Time           CPU           T/CPU          S/CPU         CPULeft
37810000   359156.25      4105.7392     -15120476       2.3896525      1069506       -14050971       566.68923      566.68923      566.68923      1716.6554      2283.3446      1716.6554      2283.3446      1716.6554      2283.3446      1.819847e+08   0.5            19110000       0              0              0              0
Averages over the last 251 of 501 rows, steps 37860000 to 37910000:
Temp Press PotEng Density KinEng TotEng Lx Ly Lz Xlo Xhi Ylo Yhi Zlo Zhi Volume Dt
93080.1 1261.5 -1.58275e+07 2.38965 277177 -1.55504e+07 566.689 566.689 566.689 1716.66 2283.34 1716.66 2283.34 1716.66 2283.34 1.81985e+08 0.5
Loop time of 6.36557 on 4 procs for 100000 steps with 1000 atoms

unfix 4

fix 5 all npt temp 300 300 $(100.0*dt) iso 1.0 1.0 $(1000.0*dt)
fix 5 all npt temp 300 300 50 iso 1.0 1.0 $(1000.0*dt)
fix 5 all npt temp 300 300 50 iso 1.0 1.0 500

run 300000
Generated 0 of 1 mixed pair_coeff terms from geometric mixing rule
Step          Temp          Press          PotEng        Density         KinEng         TotEng           Lx             Ly             Lz            Xlo            Xhi            Ylo            Yhi            Zlo            Zhi           Volume           Dt            Time           CPU           T/CPU          S/CPU         CPULeft
37910000   1396.0079      179.97596     -16046375       2.3896525      4157.0731     -16042218       566.68923      566.68923      566.68923      1716.6554      2283.3446      1716.6554      2283.3446      1716.6554      2283.3446      1.819847e+08   0.5            19160000       0              0              0              0
Averages over the last 751 of 1501 rows, steps 38060000 to 38210000:
Temp Press PotEng Density KinEng TotEng Lx Ly Lz Xlo Xhi Ylo Yhi Zlo Zhi Volume Dt
300.169 1.24717 -1.61233e+07 2.38866 893.852 -1.61224e+07 566.767 566.767 566.767 1716.62 2283.38 1716.62 2283.38 1716.62 2283.38 1.8206e+08 0.5
Loop time of 22.1943 on 4 procs for 300000 steps with 1000 atoms

# run_style
run_style verlet

# write restart
write_restart ./pgnpmf/82/equpmf54.res
System init for write_restart ...
Generated 0 of 1 mixed pair_coeff terms from geometric mixing rule
