LAMMPS (23 Jun 2022 - Update 1)
# Read restart
read_restart ./pgnpmf/82/equpmf9.res
Reading restart file ...
  restart file = 23 Jun 2022, LAMMPS = 23 Jun 2022
  restoring atom style atomic from restart
  orthogonal box = (1616.8371 1616.8371 1616.8371) to (2383.1629 2383.1629 2383.1629)
  restoring pair style table from restart
  1000 atoms
  read_restart CPU = 0.008 seconds

# Settings

pair_style table spline 9941

pair_coeff 1 1 ./pgnpmf/N20.txt DE_GNP 75.6
pair_coeff 2 2 ./pgnpmf/N100.txt DE_GNP 115.92
pair_coeff 1 2 ./pgnpmf/mixed_potential.txt DE_GNP 95.66

#Neigh_list Calc Frequency

neigh_modify delay 0 every 1 check yes

# Saving Frequency (50 frames)

variable ts_save equal 5000

# Dump
#dump_modify 1 first no sort id
dump 2 all cfg 50000 ./pgnpmf/82/equilibration/trajectory/dumpgen.tens_*.cfg mass type xs ys zs fx fy fz
dump_modify 2 element N20 N100

# thermo_style
thermo_style custom step temp press pe density ke etotal lx ly lz xlo xhi ylo yhi zlo zhi vol dt time cpu tpcpu spcpu cpuremain

# run info
timestep 0.5
thermo 200

# fix

fix 1 all momentum 1000 linear 1 1 1 angular
variable T equal 300
fix 2 all nvt temp 300 370000 100.0

run 100000
Generated 0 of 1 mixed pair_coeff terms from geometric mixing rule
Unused restart file global fix info:
  fix style: npt, fix ID: 5
  update every 1 steps, delay 0 steps, check yes
Step          Temp          Press          PotEng        Density         KinEng         TotEng           Lx             Ly             Lz            Xlo            Xhi            Ylo            Yhi            Zlo            Zhi           Volume           Dt            Time           CPU           T/CPU          S/CPU         CPULeft
6710000   313.00154      0.51407853    -10607976       0.96633842     932.06513     -10607044       766.32583      766.32583      766.32583      1616.8371      2383.1629      1616.8371      2383.1629      1616.8371      2383.1629      4.5002888e+08  0.5            3560000        0              0              0              0
Averages over the last 251 of 501 rows, steps 6760000 to 6810000:
Temp Press PotEng Density KinEng TotEng Lx Ly Lz Xlo Xhi Ylo Yhi Zlo Zhi Volume Dt
277500 82.0318 -1.05402e+07 0.966338 826349 -9.71386e+06 766.326 766.326 766.326 1616.84 2383.16 1616.84 2383.16 1616.84 2383.16 4.50029e+08 0.5
Loop time of 4.37437 on 4 procs for 100000 steps with 1000 atoms

unfix 2

fix 3 all nvt temp 370000 370000 $(100.0*dt) #iso 1.0 1.0 $(1000.0*dt)
fix 3 all nvt temp 370000 370000 50

run 200000
Generated 0 of 1 mixed pair_coeff terms from geometric mixing rule
Step          Temp          Press          PotEng        Density         KinEng         TotEng           Lx             Ly             Lz            Xlo            Xhi            Ylo            Yhi            Zlo            Zhi           Volume           Dt            Time           CPU           T/CPU          S/CPU         CPULeft
6810000   365682.05      121.05417     -10264017       0.96633842     1088938.7     -9175078.1      766.32583      766.32583      766.32583      1616.8371      2383.1629      1616.8371      2383.1629      1616.8371      2383.1629      4.5002888e+08  0.5            3610000        0              0              0              0
Averages over the last 501 of 1001 rows, steps 6910000 to 7010000:
Temp Press PotEng Density KinEng TotEng Lx Ly Lz Xlo Xhi Ylo Yhi Zlo Zhi Volume Dt
369911 80.9091 -9.55435e+06 0.966338 1.10153e+06 -8.45282e+06 766.326 766.326 766.326 1616.84 2383.16 1616.84 2383.16 1616.84 2383.16 4.50029e+08 0.5
Loop time of 8.74413 on 4 procs for 200000 steps with 1000 atoms

unfix 3

fix 4 all nvt temp 370000 300 100.0

run 100000
Generated 0 of 1 mixed pair_coeff terms from geometric mixing rule
Step          Temp          Press          PotEng        Density         KinEng         TotEng           Lx             Ly             Lz            Xlo            Xhi            Ylo            Yhi            Zlo            Zhi           Volume           Dt            Time           CPU           T/CPU          S/CPU         CPULeft
7010000   368868.78      74.426969     -9439615.3      0.96633842     1098428.2     -8341187.1      766.32583      766.32583      766.32583      1616.8371      2383.1629      1616.8371      2383.1629      1616.8371      2383.1629      4.5002888e+08  0.5            3710000        0              0              0              0
Averages over the last 251 of 501 rows, steps 7060000 to 7110000:
Temp Press PotEng Density KinEng TotEng Lx Ly Lz Xlo Xhi Ylo Yhi Zlo Zhi Volume Dt
93091.4 -211.383 -1.00299e+07 0.966338 277210 -9.75271e+06 766.326 766.326 766.326 1616.84 2383.16 1616.84 2383.16 1616.84 2383.16 4.50029e+08 0.5
Loop time of 4.37571 on 4 procs for 100000 steps with 1000 atoms

unfix 4

fix 5 all npt temp 300 300 $(100.0*dt) iso 1.0 1.0 $(1000.0*dt)
fix 5 all npt temp 300 300 50 iso 1.0 1.0 $(1000.0*dt)
fix 5 all npt temp 300 300 50 iso 1.0 1.0 500

run 300000
Generated 0 of 1 mixed pair_coeff terms from geometric mixing rule
Step          Temp          Press          PotEng        Density         KinEng         TotEng           Lx             Ly             Lz            Xlo            Xhi            Ylo            Yhi            Zlo            Zhi           Volume           Dt            Time           CPU           T/CPU          S/CPU         CPULeft
7110000   1377.9035     -324.39886     -10408732       0.96633842     4103.1615     -10404629       766.32583      766.32583      766.32583      1616.8371      2383.1629      1616.8371      2383.1629      1616.8371      2383.1629      4.5002888e+08  0.5            3760000        0              0              0              0
Averages over the last 751 of 1501 rows, steps 7260000 to 7410000:
Temp Press PotEng Density KinEng TotEng Lx Ly Lz Xlo Xhi Ylo Yhi Zlo Zhi Volume Dt
316.152 0.913289 -1.11138e+07 1.08405 941.447 -1.11129e+07 737.542 737.542 737.542 1631.23 2368.77 1631.23 2368.77 1631.23 2368.77 4.01218e+08 0.5
Loop time of 16.7932 on 4 procs for 300000 steps with 1000 atoms

# run_style
run_style verlet

# write restart
write_restart ./pgnpmf/82/equpmf10.res
System init for write_restart ...
Generated 0 of 1 mixed pair_coeff terms from geometric mixing rule
