LAMMPS (23 Jun 2022 - Update 1)
# Read restart
read_restart ./pgnpmf/82/equpmf26.res
Reading restart file ...
  restart file = 23 Jun 2022, LAMMPS = 23 Jun 2022
  restoring atom style atomic from restart
  orthogonal box = (1716.3587 1716.3587 1716.3587) to (2283.6413 2283.6413 2283.6413)
  restoring pair style table from restart
  1000 atoms
  read_restart CPU = 0.009 seconds

# Settings

pair_style table spline 9941

pair_coeff 1 1 ./pgnpmf/N20.txt DE_GNP 75.6
pair_coeff 2 2 ./pgnpmf/N100.txt DE_GNP 115.92
pair_coeff 1 2 ./pgnpmf/mixed_potential.txt DE_GNP 95.66

#Neigh_list Calc Frequency

neigh_modify delay 0 every 1 check yes

# Saving Frequency (50 frames)

variable ts_save equal 5000

# Dump
#dump_modify 1 first no sort id
dump 2 all cfg 50000 ./pgnpmf/82/equilibration/trajectory/dumpgen.tens_*.cfg mass type xs ys zs fx fy fz
dump_modify 2 element N20 N100

# thermo_style
thermo_style custom step temp press pe density ke etotal lx ly lz xlo xhi ylo yhi zlo zhi vol dt time cpu tpcpu spcpu cpuremain

# run info
timestep 0.5
thermo 200

# fix

fix 1 all momentum 1000 linear 1 1 1 angular
variable T equal 300
fix 2 all nvt temp 300 370000 100.0

run 100000
Generated 0 of 1 mixed pair_coeff terms from geometric mixing rule
Unused restart file global fix info:
  fix style: npt, fix ID: 5
  update every 1 steps, delay 0 steps, check yes
Step          Temp          Press          PotEng        Density         KinEng         TotEng           Lx             Ly             Lz            Xlo            Xhi            Ylo            Yhi            Zlo            Zhi           Volume           Dt            Time           CPU           T/CPU          S/CPU         CPULeft
18610000   298.68037     -0.93408911    -16129256       2.3821622      889.41914     -16128366       567.28256      567.28256      567.28256      1716.3587      2283.6413      1716.3587      2283.6413      1716.3587      2283.6413      1.8255692e+08  0.5            9510000        0              0              0              0
Averages over the last 251 of 501 rows, steps 18660000 to 18710000:
Temp Press PotEng Density KinEng TotEng Lx Ly Lz Xlo Xhi Ylo Yhi Zlo Zhi Volume Dt
277563 3439.99 -1.54232e+07 2.38216 826536 -1.45966e+07 567.283 567.283 567.283 1716.36 2283.64 1716.36 2283.64 1716.36 2283.64 1.82557e+08 0.5
Loop time of 6.25151 on 4 procs for 100000 steps with 1000 atoms

unfix 2

fix 3 all nvt temp 370000 370000 $(100.0*dt) #iso 1.0 1.0 $(1000.0*dt)
fix 3 all nvt temp 370000 370000 50

run 200000
Generated 0 of 1 mixed pair_coeff terms from geometric mixing rule
Step          Temp          Press          PotEng        Density         KinEng         TotEng           Lx             Ly             Lz            Xlo            Xhi            Ylo            Yhi            Zlo            Zhi           Volume           Dt            Time           CPU           T/CPU          S/CPU         CPULeft
18710000   383839.45      4356.4404     -15116261       2.3821622      1143008.3     -13973252       567.28256      567.28256      567.28256      1716.3587      2283.6413      1716.3587      2283.6413      1716.3587      2283.6413      1.8255692e+08  0.5            9560000        0              0              0              0
Averages over the last 501 of 1001 rows, steps 18810000 to 18910000:
Temp Press PotEng Density KinEng TotEng Lx Ly Lz Xlo Xhi Ylo Yhi Zlo Zhi Volume Dt
369613 4288.48 -1.51225e+07 2.38216 1.10064e+06 -1.40218e+07 567.283 567.283 567.283 1716.36 2283.64 1716.36 2283.64 1716.36 2283.64 1.82557e+08 0.5
Loop time of 12.5888 on 4 procs for 200000 steps with 1000 atoms

unfix 3

fix 4 all nvt temp 370000 300 100.0

run 100000
Generated 0 of 1 mixed pair_coeff terms from geometric mixing rule
Step          Temp          Press          PotEng        Density         KinEng         TotEng           Lx             Ly             Lz            Xlo            Xhi            Ylo            Yhi            Zlo            Zhi           Volume           Dt            Time           CPU           T/CPU          S/CPU         CPULeft
18910000   373412.44      4289.7596     -15104441       2.3821622      1111958.5     -13992483       567.28256      567.28256      567.28256      1716.3587      2283.6413      1716.3587      2283.6413      1716.3587      2283.6413      1.8255692e+08  0.5            9660000        0              0              0              0
Averages over the last 251 of 501 rows, steps 18960000 to 19010000:
Temp Press PotEng Density KinEng TotEng Lx Ly Lz Xlo Xhi Ylo Yhi Zlo Zhi Volume Dt
93098.5 1311.17 -1.58851e+07 2.38216 277231 -1.56078e+07 567.283 567.283 567.283 1716.36 2283.64 1716.36 2283.64 1716.36 2283.64 1.82557e+08 0.5
Loop time of 6.23712 on 4 procs for 100000 steps with 1000 atoms

unfix 4

fix 5 all npt temp 300 300 $(100.0*dt) iso 1.0 1.0 $(1000.0*dt)
fix 5 all npt temp 300 300 50 iso 1.0 1.0 $(1000.0*dt)
fix 5 all npt temp 300 300 50 iso 1.0 1.0 500

run 300000
Generated 0 of 1 mixed pair_coeff terms from geometric mixing rule
Step          Temp          Press          PotEng        Density         KinEng         TotEng           Lx             Ly             Lz            Xlo            Xhi            Ylo            Yhi            Zlo            Zhi           Volume           Dt            Time           CPU           T/CPU          S/CPU         CPULeft
19010000   1400.1685      219.50922     -16139518       2.3821622      4169.4628     -16135348       567.28256      567.28256      567.28256      1716.3587      2283.6413      1716.3587      2283.6413      1716.3587      2283.6413      1.8255692e+08  0.5            9710000        0              0              0              0
Averages over the last 751 of 1501 rows, steps 19160000 to 19310000:
Temp Press PotEng Density KinEng TotEng Lx Ly Lz Xlo Xhi Ylo Yhi Zlo Zhi Volume Dt
300.217 1.02263 -1.61847e+07 2.37897 893.995 -1.61838e+07 567.536 567.536 567.536 1716.23 2283.77 1716.23 2283.77 1716.23 2283.77 1.82802e+08 0.5
Loop time of 22.4817 on 4 procs for 300000 steps with 1000 atoms

# run_style
run_style verlet

# write restart
write_restart ./pgnpmf/82/equpmf27.res
System init for write_restart ...
Generated 0 of 1 mixed pair_coeff terms from geometric mixing rule
