LAMMPS (23 Jun 2022 - Update 1)
# Read restart
read_restart ./pgnpmf/82/equpmf43.res
Reading restart file ...
  restart file = 23 Jun 2022, LAMMPS = 23 Jun 2022
  restoring atom style atomic from restart
  orthogonal box = (1716.7347 1716.7347 1716.7347) to (2283.2653 2283.2653 2283.2653)
  restoring pair style table from restart
  1000 atoms
  read_restart CPU = 0.008 seconds

# Settings

pair_style table spline 9941

pair_coeff 1 1 ./pgnpmf/N20.txt DE_GNP 75.6
pair_coeff 2 2 ./pgnpmf/N100.txt DE_GNP 115.92
pair_coeff 1 2 ./pgnpmf/mixed_potential.txt DE_GNP 95.66

#Neigh_list Calc Frequency

neigh_modify delay 0 every 1 check yes

# Saving Frequency (50 frames)

variable ts_save equal 5000

# Dump
#dump_modify 1 first no sort id
dump 2 all cfg 50000 ./pgnpmf/82/equilibration/trajectory/dumpgen.tens_*.cfg mass type xs ys zs fx fy fz
dump_modify 2 element N20 N100

# thermo_style
thermo_style custom step temp press pe density ke etotal lx ly lz xlo xhi ylo yhi zlo zhi vol dt time cpu tpcpu spcpu cpuremain

# run info
timestep 0.5
thermo 200

# fix

fix 1 all momentum 1000 linear 1 1 1 angular
variable T equal 300
fix 2 all nvt temp 300 370000 100.0

run 100000
Generated 0 of 1 mixed pair_coeff terms from geometric mixing rule
Unused restart file global fix info:
  fix style: npt, fix ID: 5
  update every 1 steps, delay 0 steps, check yes
Step          Temp          Press          PotEng        Density         KinEng         TotEng           Lx             Ly             Lz            Xlo            Xhi            Ylo            Yhi            Zlo            Zhi           Volume           Dt            Time           CPU           T/CPU          S/CPU         CPULeft
30510000   298.43151      0.75418789    -16214777       2.3916593      888.67808     -16213889       566.53069      566.53069      566.53069      1716.7347      2283.2653      1716.7347      2283.2653      1716.7347      2283.2653      1.81832e+08    0.5            15460000       0              0              0              0
Averages over the last 251 of 501 rows, steps 30560000 to 30610000:
Temp Press PotEng Density KinEng TotEng Lx Ly Lz Xlo Xhi Ylo Yhi Zlo Zhi Volume Dt
277256 3399.38 -1.53866e+07 2.39166 825621 -1.4561e+07 566.531 566.531 566.531 1716.73 2283.27 1716.73 2283.27 1716.73 2283.27 1.81832e+08 0.5
Loop time of 5.85392 on 4 procs for 100000 steps with 1000 atoms

unfix 2

fix 3 all nvt temp 370000 370000 $(100.0*dt) #iso 1.0 1.0 $(1000.0*dt)
fix 3 all nvt temp 370000 370000 50

run 200000
Generated 0 of 1 mixed pair_coeff terms from geometric mixing rule
Step          Temp          Press          PotEng        Density         KinEng         TotEng           Lx             Ly             Lz            Xlo            Xhi            Ylo            Yhi            Zlo            Zhi           Volume           Dt            Time           CPU           T/CPU          S/CPU         CPULeft
30610000   378061.39      4238.7506     -15127569       2.3916593      1125802.2     -14001766       566.53069      566.53069      566.53069      1716.7347      2283.2653      1716.7347      2283.2653      1716.7347      2283.2653      1.81832e+08    0.5            15510000       0              0              0              0
Averages over the last 501 of 1001 rows, steps 30710000 to 30810000:
Temp Press PotEng Density KinEng TotEng Lx Ly Lz Xlo Xhi Ylo Yhi Zlo Zhi Volume Dt
369975 4302.99 -1.51193e+07 2.39166 1.10172e+06 -1.40176e+07 566.531 566.531 566.531 1716.73 2283.27 1716.73 2283.27 1716.73 2283.27 1.81832e+08 0.5
Loop time of 11.7871 on 4 procs for 200000 steps with 1000 atoms

unfix 3

fix 4 all nvt temp 370000 300 100.0

run 100000
Generated 0 of 1 mixed pair_coeff terms from geometric mixing rule
Step          Temp          Press          PotEng        Density         KinEng         TotEng           Lx             Ly             Lz            Xlo            Xhi            Ylo            Yhi            Zlo            Zhi           Volume           Dt            Time           CPU           T/CPU          S/CPU         CPULeft
30810000   356547.17      4331.0265     -15071770       2.3916593      1061736.6     -14010033       566.53069      566.53069      566.53069      1716.7347      2283.2653      1716.7347      2283.2653      1716.7347      2283.2653      1.81832e+08    0.5            15610000       0              0              0              0
Averages over the last 251 of 501 rows, steps 30860000 to 30910000:
Temp Press PotEng Density KinEng TotEng Lx Ly Lz Xlo Xhi Ylo Yhi Zlo Zhi Volume Dt
93070.5 1258.82 -1.5851e+07 2.39166 277148 -1.55739e+07 566.531 566.531 566.531 1716.73 2283.27 1716.73 2283.27 1716.73 2283.27 1.81832e+08 0.5
Loop time of 5.962 on 4 procs for 100000 steps with 1000 atoms

unfix 4

fix 5 all npt temp 300 300 $(100.0*dt) iso 1.0 1.0 $(1000.0*dt)
fix 5 all npt temp 300 300 50 iso 1.0 1.0 $(1000.0*dt)
fix 5 all npt temp 300 300 50 iso 1.0 1.0 500

run 300000
Generated 0 of 1 mixed pair_coeff terms from geometric mixing rule
Step          Temp          Press          PotEng        Density         KinEng         TotEng           Lx             Ly             Lz            Xlo            Xhi            Ylo            Yhi            Zlo            Zhi           Volume           Dt            Time           CPU           T/CPU          S/CPU         CPULeft
30910000   1392.9704      144.16534     -16098250       2.3916593      4148.0278     -16094102       566.53069      566.53069      566.53069      1716.7347      2283.2653      1716.7347      2283.2653      1716.7347      2283.2653      1.81832e+08    0.5            15660000       0              0              0              0
Averages over the last 751 of 1501 rows, steps 31060000 to 31210000:
Temp Press PotEng Density KinEng TotEng Lx Ly Lz Xlo Xhi Ylo Yhi Zlo Zhi Volume Dt
300.115 1.14124 -1.61704e+07 2.3909 893.692 -1.61695e+07 566.591 566.591 566.591 1716.7 2283.3 1716.7 2283.3 1716.7 2283.3 1.8189e+08 0.5
Loop time of 20.7788 on 4 procs for 300000 steps with 1000 atoms

# run_style
run_style verlet

# write restart
write_restart ./pgnpmf/82/equpmf44.res
System init for write_restart ...
Generated 0 of 1 mixed pair_coeff terms from geometric mixing rule
