LAMMPS (23 Jun 2022 - Update 1)
# Read restart
read_restart ./pgnpmf/82/equpmf17.res
Reading restart file ...
  restart file = 23 Jun 2022, LAMMPS = 23 Jun 2022
  restoring atom style atomic from restart
  orthogonal box = (1714.6324 1714.6324 1714.6324) to (2285.3676 2285.3676 2285.3676)
  restoring pair style table from restart
  1000 atoms
  read_restart CPU = 0.008 seconds

# Settings

pair_style table spline 9941

pair_coeff 1 1 ./pgnpmf/N20.txt DE_GNP 75.6
pair_coeff 2 2 ./pgnpmf/N100.txt DE_GNP 115.92
pair_coeff 1 2 ./pgnpmf/mixed_potential.txt DE_GNP 95.66

#Neigh_list Calc Frequency

neigh_modify delay 0 every 1 check yes

# Saving Frequency (50 frames)

variable ts_save equal 5000

# Dump
#dump_modify 1 first no sort id
dump 2 all cfg 50000 ./pgnpmf/82/equilibration/trajectory/dumpgen.tens_*.cfg mass type xs ys zs fx fy fz
dump_modify 2 element N20 N100

# thermo_style
thermo_style custom step temp press pe density ke etotal lx ly lz xlo xhi ylo yhi zlo zhi vol dt time cpu tpcpu spcpu cpuremain

# run info
timestep 0.5
thermo 200

# fix

fix 1 all momentum 1000 linear 1 1 1 angular
variable T equal 300
fix 2 all nvt temp 300 370000 100.0

run 100000
Generated 0 of 1 mixed pair_coeff terms from geometric mixing rule
Unused restart file global fix info:
  fix style: npt, fix ID: 5
  update every 1 steps, delay 0 steps, check yes
Step          Temp          Press          PotEng        Density         KinEng         TotEng           Lx             Ly             Lz            Xlo            Xhi            Ylo            Yhi            Zlo            Zhi           Volume           Dt            Time           CPU           T/CPU          S/CPU         CPULeft
12310000   301.86188      1.8280842     -15976187       2.3391915      898.89312     -15975288       570.73515      570.73515      570.73515      1714.6324      2285.3676      1714.6324      2285.3676      1714.6324      2285.3676      1.8591048e+08  0.5            6360000        0              0              0              0
Averages over the last 251 of 501 rows, steps 12360000 to 12410000:
Temp Press PotEng Density KinEng TotEng Lx Ly Lz Xlo Xhi Ylo Yhi Zlo Zhi Volume Dt
277351 3168.23 -1.52508e+07 2.33919 825903 -1.44249e+07 570.735 570.735 570.735 1714.63 2285.37 1714.63 2285.37 1714.63 2285.37 1.8591e+08 0.5
Loop time of 6.21707 on 4 procs for 100000 steps with 1000 atoms

unfix 2

fix 3 all nvt temp 370000 370000 $(100.0*dt) #iso 1.0 1.0 $(1000.0*dt)
fix 3 all nvt temp 370000 370000 50

run 200000
Generated 0 of 1 mixed pair_coeff terms from geometric mixing rule
Step          Temp          Press          PotEng        Density         KinEng         TotEng           Lx             Ly             Lz            Xlo            Xhi            Ylo            Yhi            Zlo            Zhi           Volume           Dt            Time           CPU           T/CPU          S/CPU         CPULeft
12410000   374437.3       3885.2007     -15028699       2.3391915      1115010.3     -13913689       570.73515      570.73515      570.73515      1714.6324      2285.3676      1714.6324      2285.3676      1714.6324      2285.3676      1.8591048e+08  0.5            6410000        0              0              0              0
Averages over the last 501 of 1001 rows, steps 12510000 to 12610000:
Temp Press PotEng Density KinEng TotEng Lx Ly Lz Xlo Xhi Ylo Yhi Zlo Zhi Volume Dt
369891 3767.3 -1.49255e+07 2.33919 1.10147e+06 -1.3824e+07 570.735 570.735 570.735 1714.63 2285.37 1714.63 2285.37 1714.63 2285.37 1.8591e+08 0.5
Loop time of 12.3006 on 4 procs for 200000 steps with 1000 atoms

unfix 3

fix 4 all nvt temp 370000 300 100.0

run 100000
Generated 0 of 1 mixed pair_coeff terms from geometric mixing rule
Step          Temp          Press          PotEng        Density         KinEng         TotEng           Lx             Ly             Lz            Xlo            Xhi            Ylo            Yhi            Zlo            Zhi           Volume           Dt            Time           CPU           T/CPU          S/CPU         CPULeft
12610000   372925.97      3775.5706     -14969558       2.3391915      1110509.8     -13859048       570.73515      570.73515      570.73515      1714.6324      2285.3676      1714.6324      2285.3676      1714.6324      2285.3676      1.8591048e+08  0.5            6510000        0              0              0              0
Averages over the last 251 of 501 rows, steps 12660000 to 12710000:
Temp Press PotEng Density KinEng TotEng Lx Ly Lz Xlo Xhi Ylo Yhi Zlo Zhi Volume Dt
93060.2 743.53 -1.56308e+07 2.33919 277117 -1.53537e+07 570.735 570.735 570.735 1714.63 2285.37 1714.63 2285.37 1714.63 2285.37 1.8591e+08 0.5
Loop time of 6.11586 on 4 procs for 100000 steps with 1000 atoms

unfix 4

fix 5 all npt temp 300 300 $(100.0*dt) iso 1.0 1.0 $(1000.0*dt)
fix 5 all npt temp 300 300 50 iso 1.0 1.0 $(1000.0*dt)
fix 5 all npt temp 300 300 50 iso 1.0 1.0 500

run 300000
Generated 0 of 1 mixed pair_coeff terms from geometric mixing rule
Step          Temp          Press          PotEng        Density         KinEng         TotEng           Lx             Ly             Lz            Xlo            Xhi            Ylo            Yhi            Zlo            Zhi           Volume           Dt            Time           CPU           T/CPU          S/CPU         CPULeft
12710000   1393.2263     -369.21054     -15874622       2.3391915      4148.79       -15870473       570.73515      570.73515      570.73515      1714.6324      2285.3676      1714.6324      2285.3676      1714.6324      2285.3676      1.8591048e+08  0.5            6560000        0              0              0              0
Averages over the last 751 of 1501 rows, steps 12860000 to 13010000:
Temp Press PotEng Density KinEng TotEng Lx Ly Lz Xlo Xhi Ylo Yhi Zlo Zhi Volume Dt
300.018 0.868628 -1.60133e+07 2.36421 893.401 -1.60124e+07 568.715 568.715 568.715 1715.64 2284.36 1715.64 2284.36 1715.64 2284.36 1.83943e+08 0.5
Loop time of 21.7613 on 4 procs for 300000 steps with 1000 atoms

# run_style
run_style verlet

# write restart
write_restart ./pgnpmf/82/equpmf18.res
System init for write_restart ...
Generated 0 of 1 mixed pair_coeff terms from geometric mixing rule
