LAMMPS (23 Jun 2022 - Update 1)
# Read restart
read_restart ./pgnpmf/82/equpmf22.res
Reading restart file ...
  restart file = 23 Jun 2022, LAMMPS = 23 Jun 2022
  restoring atom style atomic from restart
  orthogonal box = (1716.2004 1716.2004 1716.2004) to (2283.7996 2283.7996 2283.7996)
  restoring pair style table from restart
  1000 atoms
  read_restart CPU = 0.010 seconds

# Settings

pair_style table spline 9941

pair_coeff 1 1 ./pgnpmf/N20.txt DE_GNP 75.6
pair_coeff 2 2 ./pgnpmf/N100.txt DE_GNP 115.92
pair_coeff 1 2 ./pgnpmf/mixed_potential.txt DE_GNP 95.66

#Neigh_list Calc Frequency

neigh_modify delay 0 every 1 check yes

# Saving Frequency (50 frames)

variable ts_save equal 5000

# Dump
#dump_modify 1 first no sort id
dump 2 all cfg 50000 ./pgnpmf/82/equilibration/trajectory/dumpgen.tens_*.cfg mass type xs ys zs fx fy fz
dump_modify 2 element N20 N100

# thermo_style
thermo_style custom step temp press pe density ke etotal lx ly lz xlo xhi ylo yhi zlo zhi vol dt time cpu tpcpu spcpu cpuremain

# run info
timestep 0.5
thermo 200

# fix

fix 1 all momentum 1000 linear 1 1 1 angular
variable T equal 300
fix 2 all nvt temp 300 370000 100.0

run 100000
Generated 0 of 1 mixed pair_coeff terms from geometric mixing rule
Unused restart file global fix info:
  fix style: npt, fix ID: 5
  update every 1 steps, delay 0 steps, check yes
Step          Temp          Press          PotEng        Density         KinEng         TotEng           Lx             Ly             Lz            Xlo            Xhi            Ylo            Yhi            Zlo            Zhi           Volume           Dt            Time           CPU           T/CPU          S/CPU         CPULeft
15810000   309.10387      10.399457     -16099063       2.3781782      920.45855     -16098143       567.59916      567.59916      567.59916      1716.2004      2283.7996      1716.2004      2283.7996      1716.2004      2283.7996      1.8286275e+08  0.5            8110000        0              0              0              0
Averages over the last 251 of 501 rows, steps 15860000 to 15910000:
Temp Press PotEng Density KinEng TotEng Lx Ly Lz Xlo Xhi Ylo Yhi Zlo Zhi Volume Dt
277228 3381.4 -1.53248e+07 2.37818 825538 -1.44992e+07 567.599 567.599 567.599 1716.2 2283.8 1716.2 2283.8 1716.2 2283.8 1.82863e+08 0.5
Loop time of 6.25836 on 4 procs for 100000 steps with 1000 atoms

unfix 2

fix 3 all nvt temp 370000 370000 $(100.0*dt) #iso 1.0 1.0 $(1000.0*dt)
fix 3 all nvt temp 370000 370000 50

run 200000
Generated 0 of 1 mixed pair_coeff terms from geometric mixing rule
Step          Temp          Press          PotEng        Density         KinEng         TotEng           Lx             Ly             Lz            Xlo            Xhi            Ylo            Yhi            Zlo            Zhi           Volume           Dt            Time           CPU           T/CPU          S/CPU         CPULeft
15910000   368654.07      4245.0008     -15073495       2.3781782      1097788.9     -13975707       567.59916      567.59916      567.59916      1716.2004      2283.7996      1716.2004      2283.7996      1716.2004      2283.7996      1.8286275e+08  0.5            8160000        0              0              0              0
Averages over the last 501 of 1001 rows, steps 16010000 to 16110000:
Temp Press PotEng Density KinEng TotEng Lx Ly Lz Xlo Xhi Ylo Yhi Zlo Zhi Volume Dt
369967 4215.83 -1.50931e+07 2.37818 1.1017e+06 -1.39914e+07 567.599 567.599 567.599 1716.2 2283.8 1716.2 2283.8 1716.2 2283.8 1.82863e+08 0.5
Loop time of 12.8456 on 4 procs for 200000 steps with 1000 atoms

unfix 3

fix 4 all nvt temp 370000 300 100.0

run 100000
Generated 0 of 1 mixed pair_coeff terms from geometric mixing rule
Step          Temp          Press          PotEng        Density         KinEng         TotEng           Lx             Ly             Lz            Xlo            Xhi            Ylo            Yhi            Zlo            Zhi           Volume           Dt            Time           CPU           T/CPU          S/CPU         CPULeft
16110000   353913.61      4175.7122     -15048656       2.3781782      1053894.3     -13994761       567.59916      567.59916      567.59916      1716.2004      2283.7996      1716.2004      2283.7996      1716.2004      2283.7996      1.8286275e+08  0.5            8260000        0              0              0              0
Averages over the last 251 of 501 rows, steps 16160000 to 16210000:
Temp Press PotEng Density KinEng TotEng Lx Ly Lz Xlo Xhi Ylo Yhi Zlo Zhi Volume Dt
93179.8 1268.92 -1.57989e+07 2.37818 277474 -1.55214e+07 567.599 567.599 567.599 1716.2 2283.8 1716.2 2283.8 1716.2 2283.8 1.82863e+08 0.5
Loop time of 6.3854 on 4 procs for 100000 steps with 1000 atoms

unfix 4

fix 5 all npt temp 300 300 $(100.0*dt) iso 1.0 1.0 $(1000.0*dt)
fix 5 all npt temp 300 300 50 iso 1.0 1.0 $(1000.0*dt)
fix 5 all npt temp 300 300 50 iso 1.0 1.0 500

run 300000
Generated 0 of 1 mixed pair_coeff terms from geometric mixing rule
Step          Temp          Press          PotEng        Density         KinEng         TotEng           Lx             Ly             Lz            Xlo            Xhi            Ylo            Yhi            Zlo            Zhi           Volume           Dt            Time           CPU           T/CPU          S/CPU         CPULeft
16210000   1393.2777      125.37874     -16054716       2.3781782      4148.9431     -16050567       567.59916      567.59916      567.59916      1716.2004      2283.7996      1716.2004      2283.7996      1716.2004      2283.7996      1.8286275e+08  0.5            8310000        0              0              0              0
Averages over the last 751 of 1501 rows, steps 16360000 to 16510000:
Temp Press PotEng Density KinEng TotEng Lx Ly Lz Xlo Xhi Ylo Yhi Zlo Zhi Volume Dt
300.314 0.931635 -1.61213e+07 2.37953 894.284 -1.61204e+07 567.492 567.492 567.492 1716.25 2283.75 1716.25 2283.75 1716.25 2283.75 1.82759e+08 0.5
Loop time of 22.3725 on 4 procs for 300000 steps with 1000 atoms

# run_style
run_style verlet

# write restart
write_restart ./pgnpmf/82/equpmf23.res
System init for write_restart ...
Generated 0 of 1 mixed pair_coeff terms from geometric mixing rule
