LAMMPS (23 Jun 2022 - Update 1)
# Read restart
read_restart ./pgnpmf/37/equpmf21.res
Reading restart file ...
  restart file = 23 Jun 2022, LAMMPS = 23 Jun 2022
  restoring atom style atomic from restart
  orthogonal box = (2004.4142 2004.4142 2004.4142) to (2995.5858 2995.5858 2995.5858)
  restoring pair style table from restart
  1000 atoms
  read_restart CPU = 0.004 seconds

# Settings

pair_style table spline 9941

pair_coeff 1 1 ./pgnpmf/N20.txt DE_GNP 75.6
pair_coeff 2 2 ./pgnpmf/N100.txt DE_GNP 115.92
pair_coeff 1 2 ./pgnpmf/mixed_potential.txt DE_GNP 95.66

#Neigh_list Calc Frequency

neigh_modify delay 0 every 1 check yes

# Saving Frequency (50 frames)

variable ts_save equal 5000

# Dump
#dump_modify 1 first no sort id
dump 2 all cfg 50000 ./pgnpmf/37/equilibration/trajectory/dumpgen.tens_*.cfg mass type xs ys zs fx fy fz
dump_modify 2 element N20 N100

# thermo_style
thermo_style custom step temp press pe density ke etotal lx ly lz xlo xhi ylo yhi zlo zhi vol dt time cpu tpcpu spcpu cpuremain

# run info
timestep 0.5
thermo 200

# fix

fix 1 all momentum 1000 linear 1 1 1 angular
variable T equal 300
fix 2 all nvt temp 300 370000 100.0

run 100000
Generated 0 of 1 mixed pair_coeff terms from geometric mixing rule
Unused restart file global fix info:
  fix style: npt, fix ID: 5
  update every 1 steps, delay 0 steps, check yes
Step          Temp          Press          PotEng        Density         KinEng         TotEng           Lx             Ly             Lz            Xlo            Xhi            Ylo            Yhi            Zlo            Zhi           Volume           Dt            Time           CPU           T/CPU          S/CPU         CPULeft
15110000   307.28489      2.7014592     -35769314       0.61730585     915.04193     -35768399       991.17152      991.17152      991.17152      2004.4142      2995.5858      2004.4142      2995.5858      2004.4142      2995.5858      9.7374769e+08  0.5            7760000        0              0              0              0
Averages over the last 251 of 501 rows, steps 15160000 to 15210000:
Temp Press PotEng Density KinEng TotEng Lx Ly Lz Xlo Xhi Ylo Yhi Zlo Zhi Volume Dt
277516 1.69421 -3.49734e+07 0.617306 826395 -3.4147e+07 991.172 991.172 991.172 2004.41 2995.59 2004.41 2995.59 2004.41 2995.59 9.73748e+08 0.5
Loop time of 7.88599 on 4 procs for 100000 steps with 1000 atoms

unfix 2

fix 3 all nvt temp 370000 370000 $(100.0*dt) #iso 1.0 1.0 $(1000.0*dt)
fix 3 all nvt temp 370000 370000 50

run 200000
Generated 0 of 1 mixed pair_coeff terms from geometric mixing rule
Step          Temp          Press          PotEng        Density         KinEng         TotEng           Lx             Ly             Lz            Xlo            Xhi            Ylo            Yhi            Zlo            Zhi           Volume           Dt            Time           CPU           T/CPU          S/CPU         CPULeft
15210000   354420.18     -28.725511     -34447265       0.61730585     1055402.8     -33391863       991.17152      991.17152      991.17152      2004.4142      2995.5858      2004.4142      2995.5858      2004.4142      2995.5858      9.7374769e+08  0.5            7810000        0              0              0              0
Averages over the last 501 of 1001 rows, steps 15310000 to 15410000:
Temp Press PotEng Density KinEng TotEng Lx Ly Lz Xlo Xhi Ylo Yhi Zlo Zhi Volume Dt
369731 18.0219 -3.37106e+07 0.617306 1.10099e+06 -3.26096e+07 991.172 991.172 991.172 2004.41 2995.59 2004.41 2995.59 2004.41 2995.59 9.73748e+08 0.5
Loop time of 15.7949 on 4 procs for 200000 steps with 1000 atoms

unfix 3

fix 4 all nvt temp 370000 300 100.0

run 100000
Generated 0 of 1 mixed pair_coeff terms from geometric mixing rule
Step          Temp          Press          PotEng        Density         KinEng         TotEng           Lx             Ly             Lz            Xlo            Xhi            Ylo            Yhi            Zlo            Zhi           Volume           Dt            Time           CPU           T/CPU          S/CPU         CPULeft
15410000   366262.35      13.135407     -33692690       0.61730585     1090666.7     -32602023       991.17152      991.17152      991.17152      2004.4142      2995.5858      2004.4142      2995.5858      2004.4142      2995.5858      9.7374769e+08  0.5            7910000        0              0              0              0
Averages over the last 251 of 501 rows, steps 15460000 to 15510000:
Temp Press PotEng Density KinEng TotEng Lx Ly Lz Xlo Xhi Ylo Yhi Zlo Zhi Volume Dt
93084.6 -139.801 -3.49764e+07 0.617306 277190 -3.46992e+07 991.172 991.172 991.172 2004.41 2995.59 2004.41 2995.59 2004.41 2995.59 9.73748e+08 0.5
Loop time of 7.62675 on 4 procs for 100000 steps with 1000 atoms

unfix 4

fix 5 all npt temp 300 300 $(100.0*dt) iso 1.0 1.0 $(1000.0*dt)
fix 5 all npt temp 300 300 50 iso 1.0 1.0 $(1000.0*dt)
fix 5 all npt temp 300 300 50 iso 1.0 1.0 500

run 300000
Generated 0 of 1 mixed pair_coeff terms from geometric mixing rule
Step          Temp          Press          PotEng        Density         KinEng         TotEng           Lx             Ly             Lz            Xlo            Xhi            Ylo            Yhi            Zlo            Zhi           Volume           Dt            Time           CPU           T/CPU          S/CPU         CPULeft
15510000   1353.9927     -153.04488     -35518171       0.61730585     4031.959      -35514139       991.17152      991.17152      991.17152      2004.4142      2995.5858      2004.4142      2995.5858      2004.4142      2995.5858      9.7374769e+08  0.5            7960000        0              0              0              0
Averages over the last 751 of 1501 rows, steps 15660000 to 15810000:
Temp Press PotEng Density KinEng TotEng Lx Ly Lz Xlo Xhi Ylo Yhi Zlo Zhi Volume Dt
308.077 0.970485 -3.60381e+07 0.639889 917.399 -3.60372e+07 979.375 979.375 979.375 2010.31 2989.69 2010.31 2989.69 2010.31 2989.69 9.39396e+08 0.5
Loop time of 27.1924 on 4 procs for 300000 steps with 1000 atoms

# run_style
run_style verlet

# write restart
write_restart ./pgnpmf/37/equpmf22.res
System init for write_restart ...
Generated 0 of 1 mixed pair_coeff terms from geometric mixing rule
