LAMMPS (23 Jun 2022 - Update 1)
# Read restart
read_restart ./pgnpmf/37/equpmf46.res
Reading restart file ...
  restart file = 23 Jun 2022, LAMMPS = 23 Jun 2022
  restoring atom style atomic from restart
  orthogonal box = (2133.6767 2133.6767 2133.6767) to (2866.3233 2866.3233 2866.3233)
  restoring pair style table from restart
  1000 atoms
  read_restart CPU = 0.006 seconds

# Settings

pair_style table spline 9941

pair_coeff 1 1 ./pgnpmf/N20.txt DE_GNP 75.6
pair_coeff 2 2 ./pgnpmf/N100.txt DE_GNP 115.92
pair_coeff 1 2 ./pgnpmf/mixed_potential.txt DE_GNP 95.66

#Neigh_list Calc Frequency

neigh_modify delay 0 every 1 check yes

# Saving Frequency (50 frames)

variable ts_save equal 5000

# Dump
#dump_modify 1 first no sort id
dump 2 all cfg 50000 ./pgnpmf/37/equilibration/trajectory/dumpgen.tens_*.cfg mass type xs ys zs fx fy fz
dump_modify 2 element N20 N100

# thermo_style
thermo_style custom step temp press pe density ke etotal lx ly lz xlo xhi ylo yhi zlo zhi vol dt time cpu tpcpu spcpu cpuremain

# run info
timestep 0.1
thermo 200

# fix

fix 1 all momentum 1000 linear 1 1 1 angular
variable T equal 300
fix 2 all nvt temp 300 370000 100.0

run 100000
Generated 0 of 1 mixed pair_coeff terms from geometric mixing rule
Unused restart file global fix info:
  fix style: npt, fix ID: 5
  update every 1 steps, delay 0 steps, check yes
Step          Temp          Press          PotEng        Density         KinEng         TotEng           Lx             Ly             Lz            Xlo            Xhi            Ylo            Yhi            Zlo            Zhi           Volume           Dt            Time           CPU           T/CPU          S/CPU         CPULeft
32610000   306.16142     -0.78325074    -41975356       1.528492       911.69642     -41974445       732.64663      732.64663      732.64663      2133.6767      2866.3233      2133.6767      2866.3233      2133.6767      2866.3233      3.9326352e+08  0.1            12030000       0              0              0              0
Averages over the last 251 of 501 rows, steps 32660000 to 32710000:
Temp Press PotEng Density KinEng TotEng Lx Ly Lz Xlo Xhi Ylo Yhi Zlo Zhi Volume Dt
277286 548.744 -4.18587e+07 1.52849 825711 -4.1033e+07 732.647 732.647 732.647 2133.68 2866.32 2133.68 2866.32 2133.68 2866.32 3.93264e+08 0.1
Loop time of 6.03277 on 4 procs for 100000 steps with 1000 atoms

unfix 2

fix 3 all nvt temp 370000 370000 $(100.0*dt) #iso 1.0 1.0 $(1000.0*dt)
fix 3 all nvt temp 370000 370000 10

run 200000
Generated 0 of 1 mixed pair_coeff terms from geometric mixing rule
Step          Temp          Press          PotEng        Density         KinEng         TotEng           Lx             Ly             Lz            Xlo            Xhi            Ylo            Yhi            Zlo            Zhi           Volume           Dt            Time           CPU           T/CPU          S/CPU         CPULeft
32710000   381690.52      948.50167     -41700384       1.528492       1136609.2     -40563775       732.64663      732.64663      732.64663      2133.6767      2866.3233      2133.6767      2866.3233      2133.6767      2866.3233      3.9326352e+08  0.1            12040000       0              0              0              0
Averages over the last 501 of 1001 rows, steps 32810000 to 32910000:
Temp Press PotEng Density KinEng TotEng Lx Ly Lz Xlo Xhi Ylo Yhi Zlo Zhi Volume Dt
369825 1014.42 -4.13751e+07 1.52849 1.10128e+06 -4.02738e+07 732.647 732.647 732.647 2133.68 2866.32 2133.68 2866.32 2133.68 2866.32 3.93264e+08 0.1
Loop time of 12.1809 on 4 procs for 200000 steps with 1000 atoms

unfix 3

fix 4 all nvt temp 370000 300 100.0

run 100000
Generated 0 of 1 mixed pair_coeff terms from geometric mixing rule
Step          Temp          Press          PotEng        Density         KinEng         TotEng           Lx             Ly             Lz            Xlo            Xhi            Ylo            Yhi            Zlo            Zhi           Volume           Dt            Time           CPU           T/CPU          S/CPU         CPULeft
32910000   376443.61      838.23008     -41314210       1.528492       1120984.8     -40193225       732.64663      732.64663      732.64663      2133.6767      2866.3233      2133.6767      2866.3233      2133.6767      2866.3233      3.9326352e+08  0.1            12060000       0              0              0              0
Averages over the last 251 of 501 rows, steps 32960000 to 33010000:
Temp Press PotEng Density KinEng TotEng Lx Ly Lz Xlo Xhi Ylo Yhi Zlo Zhi Volume Dt
96023 -50.8114 -4.15608e+07 1.52849 285940 -4.12749e+07 732.647 732.647 732.647 2133.68 2866.32 2133.68 2866.32 2133.68 2866.32 3.93264e+08 0.1
Loop time of 6.00068 on 4 procs for 100000 steps with 1000 atoms

unfix 4

fix 5 all npt temp 300 300 $(100.0*dt) iso 1.0 1.0 $(1000.0*dt)
fix 5 all npt temp 300 300 10 iso 1.0 1.0 $(1000.0*dt)
fix 5 all npt temp 300 300 10 iso 1.0 1.0 100

run 300000
Generated 0 of 1 mixed pair_coeff terms from geometric mixing rule
Step          Temp          Press          PotEng        Density         KinEng         TotEng           Lx             Ly             Lz            Xlo            Xhi            Ylo            Yhi            Zlo            Zhi           Volume           Dt            Time           CPU           T/CPU          S/CPU         CPULeft
33010000   5104.37       -378.23952     -41675940       1.528492       15199.942     -41660740       732.64663      732.64663      732.64663      2133.6767      2866.3233      2133.6767      2866.3233      2133.6767      2866.3233      3.9326352e+08  0.1            12070000       0              0              0              0
Averages over the last 751 of 1501 rows, steps 33160000 to 33310000:
Temp Press PotEng Density KinEng TotEng Lx Ly Lz Xlo Xhi Ylo Yhi Zlo Zhi Volume Dt
307.311 1.04073 -4.20799e+07 1.55281 915.119 -4.2079e+07 728.801 728.801 728.801 2135.6 2864.4 2135.6 2864.4 2135.6 2864.4 3.87104e+08 0.1
Loop time of 21.4652 on 4 procs for 300000 steps with 1000 atoms

# run_style
run_style verlet

# write restart
write_restart ./pgnpmf/37/equpmf47.res
System init for write_restart ...
Generated 0 of 1 mixed pair_coeff terms from geometric mixing rule
