LAMMPS (23 Jun 2022 - Update 1)
# Read restart
read_restart ./pgnpmf/37/equpmf52.res
Reading restart file ...
  restart file = 23 Jun 2022, LAMMPS = 23 Jun 2022
  restoring atom style atomic from restart
  orthogonal box = (2141.6874 2141.6874 2141.6874) to (2858.3126 2858.3126 2858.3126)
  restoring pair style table from restart
  1000 atoms
  read_restart CPU = 0.008 seconds

# Settings

pair_style table spline 9941

pair_coeff 1 1 ./pgnpmf/N20.txt DE_GNP 75.6
pair_coeff 2 2 ./pgnpmf/N100.txt DE_GNP 115.92
pair_coeff 1 2 ./pgnpmf/mixed_potential.txt DE_GNP 95.66

#Neigh_list Calc Frequency

neigh_modify delay 0 every 1 check yes

# Saving Frequency (50 frames)

variable ts_save equal 5000

# Dump
#dump_modify 1 first no sort id
dump 2 all cfg 50000 ./pgnpmf/37/equilibration/trajectory/dumpgen.tens_*.cfg mass type xs ys zs fx fy fz
dump_modify 2 element N20 N100

# thermo_style
thermo_style custom step temp press pe density ke etotal lx ly lz xlo xhi ylo yhi zlo zhi vol dt time cpu tpcpu spcpu cpuremain

# run info
timestep 0.1
thermo 200

# fix

fix 1 all momentum 1000 linear 1 1 1 angular
variable T equal 300
fix 2 all nvt temp 300 370000 100.0

run 100000
Generated 0 of 1 mixed pair_coeff terms from geometric mixing rule
Unused restart file global fix info:
  fix style: npt, fix ID: 5
  update every 1 steps, delay 0 steps, check yes
Step          Temp          Press          PotEng        Density         KinEng         TotEng           Lx             Ly             Lz            Xlo            Xhi            Ylo            Yhi            Zlo            Zhi           Volume           Dt            Time           CPU           T/CPU          S/CPU         CPULeft
36810000   305.51113     -0.20070147    -42880696       1.6333179      909.75997     -42879786       716.62513      716.62513      716.62513      2141.6874      2858.3126      2141.6874      2858.3126      2141.6874      2858.3126      3.6802397e+08  0.1            12450000       0              0              0              0
Averages over the last 251 of 501 rows, steps 36860000 to 36910000:
Temp Press PotEng Density KinEng TotEng Lx Ly Lz Xlo Xhi Ylo Yhi Zlo Zhi Volume Dt
277933 659.278 -4.27518e+07 1.63332 827637 -4.19242e+07 716.625 716.625 716.625 2141.69 2858.31 2141.69 2858.31 2141.69 2858.31 3.68024e+08 0.1
Loop time of 6.09776 on 4 procs for 100000 steps with 1000 atoms

unfix 2

fix 3 all nvt temp 370000 370000 $(100.0*dt) #iso 1.0 1.0 $(1000.0*dt)
fix 3 all nvt temp 370000 370000 10

run 200000
Generated 0 of 1 mixed pair_coeff terms from geometric mixing rule
Step          Temp          Press          PotEng        Density         KinEng         TotEng           Lx             Ly             Lz            Xlo            Xhi            Ylo            Yhi            Zlo            Zhi           Volume           Dt            Time           CPU           T/CPU          S/CPU         CPULeft
36910000   372956.76      1186.5662     -42607302       1.6333179      1110601.6     -41496700       716.62513      716.62513      716.62513      2141.6874      2858.3126      2141.6874      2858.3126      2141.6874      2858.3126      3.6802397e+08  0.1            12460000       0              0              0              0
Averages over the last 501 of 1001 rows, steps 37010000 to 37110000:
Temp Press PotEng Density KinEng TotEng Lx Ly Lz Xlo Xhi Ylo Yhi Zlo Zhi Volume Dt
370013 1464.96 -4.23461e+07 1.63332 1.10184e+06 -4.12443e+07 716.625 716.625 716.625 2141.69 2858.31 2141.69 2858.31 2141.69 2858.31 3.68024e+08 0.1
Loop time of 12.161 on 4 procs for 200000 steps with 1000 atoms

unfix 3

fix 4 all nvt temp 370000 300 100.0

run 100000
Generated 0 of 1 mixed pair_coeff terms from geometric mixing rule
Step          Temp          Press          PotEng        Density         KinEng         TotEng           Lx             Ly             Lz            Xlo            Xhi            Ylo            Yhi            Zlo            Zhi           Volume           Dt            Time           CPU           T/CPU          S/CPU         CPULeft
37110000   369500.41      1475.9698     -42241148       1.6333179      1100309.1     -41140839       716.62513      716.62513      716.62513      2141.6874      2858.3126      2141.6874      2858.3126      2141.6874      2858.3126      3.6802397e+08  0.1            12480000       0              0              0              0
Averages over the last 251 of 501 rows, steps 37160000 to 37210000:
Temp Press PotEng Density KinEng TotEng Lx Ly Lz Xlo Xhi Ylo Yhi Zlo Zhi Volume Dt
96234 373.347 -4.25379e+07 1.63332 286568 -4.22513e+07 716.625 716.625 716.625 2141.69 2858.31 2141.69 2858.31 2141.69 2858.31 3.68024e+08 0.1
Loop time of 6.11287 on 4 procs for 100000 steps with 1000 atoms

unfix 4

fix 5 all npt temp 300 300 $(100.0*dt) iso 1.0 1.0 $(1000.0*dt)
fix 5 all npt temp 300 300 10 iso 1.0 1.0 $(1000.0*dt)
fix 5 all npt temp 300 300 10 iso 1.0 1.0 100

run 300000
Generated 0 of 1 mixed pair_coeff terms from geometric mixing rule
Step          Temp          Press          PotEng        Density         KinEng         TotEng           Lx             Ly             Lz            Xlo            Xhi            Ylo            Yhi            Zlo            Zhi           Volume           Dt            Time           CPU           T/CPU          S/CPU         CPULeft
37210000   5138.0496      6.7139916     -42669679       1.6333179      15300.234     -42654378       716.62513      716.62513      716.62513      2141.6874      2858.3126      2141.6874      2858.3126      2141.6874      2858.3126      3.6802397e+08  0.1            12490000       0              0              0              0
Averages over the last 751 of 1501 rows, steps 37360000 to 37510000:
Temp Press PotEng Density KinEng TotEng Lx Ly Lz Xlo Xhi Ylo Yhi Zlo Zhi Volume Dt
306.81 0.913215 -4.28454e+07 1.64213 913.628 -4.28445e+07 715.34 715.34 715.34 2142.33 2857.67 2142.33 2857.67 2142.33 2857.67 3.66048e+08 0.1
Loop time of 21.8274 on 4 procs for 300000 steps with 1000 atoms

# run_style
run_style verlet

# write restart
write_restart ./pgnpmf/37/equpmf53.res
System init for write_restart ...
Generated 0 of 1 mixed pair_coeff terms from geometric mixing rule
