LAMMPS (23 Jun 2022 - Update 1)
# Read restart
read_restart ./pgnpmf/37/equpmf48.res
Reading restart file ...
  restart file = 23 Jun 2022, LAMMPS = 23 Jun 2022
  restoring atom style atomic from restart
  orthogonal box = (2137.1181 2137.1181 2137.1181) to (2862.8819 2862.8819 2862.8819)
  restoring pair style table from restart
  1000 atoms
  read_restart CPU = 0.006 seconds

# Settings

pair_style table spline 9941

pair_coeff 1 1 ./pgnpmf/N20.txt DE_GNP 75.6
pair_coeff 2 2 ./pgnpmf/N100.txt DE_GNP 115.92
pair_coeff 1 2 ./pgnpmf/mixed_potential.txt DE_GNP 95.66

#Neigh_list Calc Frequency

neigh_modify delay 0 every 1 check yes

# Saving Frequency (50 frames)

variable ts_save equal 5000

# Dump
#dump_modify 1 first no sort id
dump 2 all cfg 50000 ./pgnpmf/37/equilibration/trajectory/dumpgen.tens_*.cfg mass type xs ys zs fx fy fz
dump_modify 2 element N20 N100

# thermo_style
thermo_style custom step temp press pe density ke etotal lx ly lz xlo xhi ylo yhi zlo zhi vol dt time cpu tpcpu spcpu cpuremain

# run info
timestep 0.1
thermo 200

# fix

fix 1 all momentum 1000 linear 1 1 1 angular
variable T equal 300
fix 2 all nvt temp 300 370000 100.0

run 100000
Generated 0 of 1 mixed pair_coeff terms from geometric mixing rule
Unused restart file global fix info:
  fix style: npt, fix ID: 5
  update every 1 steps, delay 0 steps, check yes
Step          Temp          Press          PotEng        Density         KinEng         TotEng           Lx             Ly             Lz            Xlo            Xhi            Ylo            Yhi            Zlo            Zhi           Volume           Dt            Time           CPU           T/CPU          S/CPU         CPULeft
34010000   305.77095      0.60895362    -42303542       1.5723922      910.53367     -42302631       725.76383      725.76383      725.76383      2137.1181      2862.8819      2137.1181      2862.8819      2137.1181      2862.8819      3.8228386e+08  0.1            12170000       0              0              0              0
Averages over the last 251 of 501 rows, steps 34060000 to 34110000:
Temp Press PotEng Density KinEng TotEng Lx Ly Lz Xlo Xhi Ylo Yhi Zlo Zhi Volume Dt
277488 712.613 -4.22808e+07 1.57239 826311 -4.14545e+07 725.764 725.764 725.764 2137.12 2862.88 2137.12 2862.88 2137.12 2862.88 3.82284e+08 0.1
Loop time of 6.07293 on 4 procs for 100000 steps with 1000 atoms

unfix 2

fix 3 all nvt temp 370000 370000 $(100.0*dt) #iso 1.0 1.0 $(1000.0*dt)
fix 3 all nvt temp 370000 370000 10

run 200000
Generated 0 of 1 mixed pair_coeff terms from geometric mixing rule
Step          Temp          Press          PotEng        Density         KinEng         TotEng           Lx             Ly             Lz            Xlo            Xhi            Ylo            Yhi            Zlo            Zhi           Volume           Dt            Time           CPU           T/CPU          S/CPU         CPULeft
34110000   378679.24      1186.1978     -42188048       1.5723922      1127642.1     -41060406       725.76383      725.76383      725.76383      2137.1181      2862.8819      2137.1181      2862.8819      2137.1181      2862.8819      3.8228386e+08  0.1            12180000       0              0              0              0
Averages over the last 501 of 1001 rows, steps 34210000 to 34310000:
Temp Press PotEng Density KinEng TotEng Lx Ly Lz Xlo Xhi Ylo Yhi Zlo Zhi Volume Dt
369781 1322.58 -4.18661e+07 1.57239 1.10114e+06 -4.07649e+07 725.764 725.764 725.764 2137.12 2862.88 2137.12 2862.88 2137.12 2862.88 3.82284e+08 0.1
Loop time of 12.244 on 4 procs for 200000 steps with 1000 atoms

unfix 3

fix 4 all nvt temp 370000 300 100.0

run 100000
Generated 0 of 1 mixed pair_coeff terms from geometric mixing rule
Step          Temp          Press          PotEng        Density         KinEng         TotEng           Lx             Ly             Lz            Xlo            Xhi            Ylo            Yhi            Zlo            Zhi           Volume           Dt            Time           CPU           T/CPU          S/CPU         CPULeft
34310000   376751.64      1204.3158     -41833864       1.5723922      1121902.1     -40711962       725.76383      725.76383      725.76383      2137.1181      2862.8819      2137.1181      2862.8819      2137.1181      2862.8819      3.8228386e+08  0.1            12200000       0              0              0              0
Averages over the last 251 of 501 rows, steps 34360000 to 34410000:
Temp Press PotEng Density KinEng TotEng Lx Ly Lz Xlo Xhi Ylo Yhi Zlo Zhi Volume Dt
96343.8 135.329 -4.20436e+07 1.57239 286895 -4.17567e+07 725.764 725.764 725.764 2137.12 2862.88 2137.12 2862.88 2137.12 2862.88 3.82284e+08 0.1
Loop time of 6.04401 on 4 procs for 100000 steps with 1000 atoms

unfix 4

fix 5 all npt temp 300 300 $(100.0*dt) iso 1.0 1.0 $(1000.0*dt)
fix 5 all npt temp 300 300 10 iso 1.0 1.0 $(1000.0*dt)
fix 5 all npt temp 300 300 10 iso 1.0 1.0 100

run 300000
Generated 0 of 1 mixed pair_coeff terms from geometric mixing rule
Step          Temp          Press          PotEng        Density         KinEng         TotEng           Lx             Ly             Lz            Xlo            Xhi            Ylo            Yhi            Zlo            Zhi           Volume           Dt            Time           CPU           T/CPU          S/CPU         CPULeft
34410000   5055.624      -220.46353     -42200644       1.5723922      15054.785     -42185589       725.76383      725.76383      725.76383      2137.1181      2862.8819      2137.1181      2862.8819      2137.1181      2862.8819      3.8228386e+08  0.1            12210000       0              0              0              0
Averages over the last 751 of 1501 rows, steps 34560000 to 34710000:
Temp Press PotEng Density KinEng TotEng Lx Ly Lz Xlo Xhi Ylo Yhi Zlo Zhi Volume Dt
306.879 1.08647 -4.2517e+07 1.58927 913.833 -4.25161e+07 723.186 723.186 723.186 2138.41 2861.59 2138.41 2861.59 2138.41 2861.59 3.78225e+08 0.1
Loop time of 21.6461 on 4 procs for 300000 steps with 1000 atoms

# run_style
run_style verlet

# write restart
write_restart ./pgnpmf/37/equpmf49.res
System init for write_restart ...
Generated 0 of 1 mixed pair_coeff terms from geometric mixing rule
