LAMMPS (23 Jun 2022 - Update 1)
# Read restart
read_restart ./pgnpmf/37/equpmf50.res
Reading restart file ...
  restart file = 23 Jun 2022, LAMMPS = 23 Jun 2022
  restoring atom style atomic from restart
  orthogonal box = (2139.2831 2139.2831 2139.2831) to (2860.7169 2860.7169 2860.7169)
  restoring pair style table from restart
  1000 atoms
  read_restart CPU = 0.007 seconds

# Settings

pair_style table spline 9941

pair_coeff 1 1 ./pgnpmf/N20.txt DE_GNP 75.6
pair_coeff 2 2 ./pgnpmf/N100.txt DE_GNP 115.92
pair_coeff 1 2 ./pgnpmf/mixed_potential.txt DE_GNP 95.66

#Neigh_list Calc Frequency

neigh_modify delay 0 every 1 check yes

# Saving Frequency (50 frames)

variable ts_save equal 5000

# Dump
#dump_modify 1 first no sort id
dump 2 all cfg 50000 ./pgnpmf/37/equilibration/trajectory/dumpgen.tens_*.cfg mass type xs ys zs fx fy fz
dump_modify 2 element N20 N100

# thermo_style
thermo_style custom step temp press pe density ke etotal lx ly lz xlo xhi ylo yhi zlo zhi vol dt time cpu tpcpu spcpu cpuremain

# run info
timestep 0.1
thermo 200

# fix

fix 1 all momentum 1000 linear 1 1 1 angular
variable T equal 300
fix 2 all nvt temp 300 370000 100.0

run 100000
Generated 0 of 1 mixed pair_coeff terms from geometric mixing rule
Unused restart file global fix info:
  fix style: npt, fix ID: 5
  update every 1 steps, delay 0 steps, check yes
Step          Temp          Press          PotEng        Density         KinEng         TotEng           Lx             Ly             Lz            Xlo            Xhi            Ylo            Yhi            Zlo            Zhi           Volume           Dt            Time           CPU           T/CPU          S/CPU         CPULeft
35410000   305.83574     -1.181661      -42616259       1.6008744      910.7266      -42615348       721.43387      721.43387      721.43387      2139.2831      2860.7169      2139.2831      2860.7169      2139.2831      2860.7169      3.7548239e+08  0.1            12310000       0              0              0              0
Averages over the last 251 of 501 rows, steps 35460000 to 35510000:
Temp Press PotEng Density KinEng TotEng Lx Ly Lz Xlo Xhi Ylo Yhi Zlo Zhi Volume Dt
277537 627.458 -4.25509e+07 1.60087 826457 -4.17245e+07 721.434 721.434 721.434 2139.28 2860.72 2139.28 2860.72 2139.28 2860.72 3.75482e+08 0.1
Loop time of 5.92152 on 4 procs for 100000 steps with 1000 atoms

unfix 2

fix 3 all nvt temp 370000 370000 $(100.0*dt) #iso 1.0 1.0 $(1000.0*dt)
fix 3 all nvt temp 370000 370000 10

run 200000
Generated 0 of 1 mixed pair_coeff terms from geometric mixing rule
Step          Temp          Press          PotEng        Density         KinEng         TotEng           Lx             Ly             Lz            Xlo            Xhi            Ylo            Yhi            Zlo            Zhi           Volume           Dt            Time           CPU           T/CPU          S/CPU         CPULeft
35510000   379341.05      1077.8177     -42313854       1.6008744      1129612.9     -41184241       721.43387      721.43387      721.43387      2139.2831      2860.7169      2139.2831      2860.7169      2139.2831      2860.7169      3.7548239e+08  0.1            12320000       0              0              0              0
Averages over the last 501 of 1001 rows, steps 35610000 to 35710000:
Temp Press PotEng Density KinEng TotEng Lx Ly Lz Xlo Xhi Ylo Yhi Zlo Zhi Volume Dt
369857 1413.12 -4.21303e+07 1.60087 1.10137e+06 -4.1029e+07 721.434 721.434 721.434 2139.28 2860.72 2139.28 2860.72 2139.28 2860.72 3.75482e+08 0.1
Loop time of 11.9283 on 4 procs for 200000 steps with 1000 atoms

unfix 3

fix 4 all nvt temp 370000 300 100.0

run 100000
Generated 0 of 1 mixed pair_coeff terms from geometric mixing rule
Step          Temp          Press          PotEng        Density         KinEng         TotEng           Lx             Ly             Lz            Xlo            Xhi            Ylo            Yhi            Zlo            Zhi           Volume           Dt            Time           CPU           T/CPU          S/CPU         CPULeft
35710000   360986.83      1230.6699     -42009551       1.6008744      1074957.1     -40934594       721.43387      721.43387      721.43387      2139.2831      2860.7169      2139.2831      2860.7169      2139.2831      2860.7169      3.7548239e+08  0.1            12340000       0              0              0              0
Averages over the last 251 of 501 rows, steps 35760000 to 35810000:
Temp Press PotEng Density KinEng TotEng Lx Ly Lz Xlo Xhi Ylo Yhi Zlo Zhi Volume Dt
96267.2 284.815 -4.22353e+07 1.60087 286667 -4.19486e+07 721.434 721.434 721.434 2139.28 2860.72 2139.28 2860.72 2139.28 2860.72 3.75482e+08 0.1
Loop time of 5.79619 on 4 procs for 100000 steps with 1000 atoms

unfix 4

fix 5 all npt temp 300 300 $(100.0*dt) iso 1.0 1.0 $(1000.0*dt)
fix 5 all npt temp 300 300 10 iso 1.0 1.0 $(1000.0*dt)
fix 5 all npt temp 300 300 10 iso 1.0 1.0 100

run 300000
Generated 0 of 1 mixed pair_coeff terms from geometric mixing rule
Step          Temp          Press          PotEng        Density         KinEng         TotEng           Lx             Ly             Lz            Xlo            Xhi            Ylo            Yhi            Zlo            Zhi           Volume           Dt            Time           CPU           T/CPU          S/CPU         CPULeft
35810000   5158.8588     -98.142361     -42402879       1.6008744      15362.2       -42387517       721.43387      721.43387      721.43387      2139.2831      2860.7169      2139.2831      2860.7169      2139.2831      2860.7169      3.7548239e+08  0.1            12350000       0              0              0              0
Averages over the last 751 of 1501 rows, steps 35960000 to 36110000:
Temp Press PotEng Density KinEng TotEng Lx Ly Lz Xlo Xhi Ylo Yhi Zlo Zhi Volume Dt
307.031 1.24874 -4.27151e+07 1.61352 914.285 -4.27142e+07 719.544 719.544 719.544 2140.23 2859.77 2140.23 2859.77 2140.23 2859.77 3.72539e+08 0.1
Loop time of 22.9196 on 4 procs for 300000 steps with 1000 atoms

# run_style
run_style verlet

# write restart
write_restart ./pgnpmf/37/equpmf51.res
System init for write_restart ...
Generated 0 of 1 mixed pair_coeff terms from geometric mixing rule
