LAMMPS (23 Jun 2022 - Update 1)
# Read restart
read_restart ./pgnpmf/37/genpmf.res
Reading restart file ...
  restart file = 23 Jun 2022, LAMMPS = 23 Jun 2022
  restoring atom style atomic from restart
  orthogonal box = (-100 -100 -100) to (5100 5100 5100)
  restoring pair style table from restart
  1000 atoms
  read_restart CPU = 0.004 seconds

# Settings

pair_style table spline 9941

pair_coeff 1 1 ./pgnpmf/N20.txt DE_GNP 75.6
pair_coeff 2 2 ./pgnpmf/N100.txt DE_GNP 115.92
pair_coeff 1 2 ./pgnpmf/mixed_potential.txt DE_GNP 95.66

#Neigh_list Calc Frequency

neigh_modify delay 0 every 1 check yes

# Saving Frequency (50 frames)

variable ts_save equal 5000

# Dump
#dump_modify 1 first no sort id
dump 2 all cfg 50000 ./pgnpmf/37/equilibration/trajectory/dumpgen.tens_*.cfg mass type xs ys zs fx fy fz
dump_modify 2 element N20 N100

# thermo_style
thermo_style custom step temp press pe density ke etotal lx ly lz xlo xhi ylo yhi zlo zhi vol dt time cpu tpcpu spcpu cpuremain

# run info
timestep 0.5
thermo 200

# fix

fix 1 all momentum 1000 linear 1 1 1 angular
variable T equal 300
fix 2 all nvt temp 300 370000 100.0
  fix style: nvt, fix ID: 2

run 100000
Generated 0 of 1 mixed pair_coeff terms from geometric mixing rule
Unused restart file global fix info:
  fix style: nvt, fix ID: 3
  fix style: nvt, fix ID: 4
  update every 1 steps, delay 0 steps, check yes
Step          Temp          Press          PotEng        Density         KinEng         TotEng           Lx             Ly             Lz            Xlo            Xhi            Ylo            Yhi            Zlo            Zhi           Volume           Dt            Time           CPU           T/CPU          S/CPU         CPULeft
410000   32915.203      0.018390273   -308284.72      0.0042750067   98015.853     -210268.87      5200           5200           5200          -100            5100          -100            5100          -100            5100           1.40608e+11    0.5            410000         0              0              0              0
Averages over the last 251 of 501 rows, steps 460000 to 510000:
Temp Press PotEng Density KinEng TotEng Lx Ly Lz Xlo Xhi Ylo Yhi Zlo Zhi Volume Dt
277605 0.260895 -183991 0.00427501 826660 642670 5200 5200 5200 -100 5100 -100 5100 -100 5100 1.40608e+11 0.5
Loop time of 4.15808 on 1 procs for 100000 steps with 1000 atoms

unfix 2

fix 3 all nvt temp 370000 370000 $(100.0*dt) #iso 1.0 1.0 $(1000.0*dt)
fix 3 all nvt temp 370000 370000 50

run 200000
Generated 0 of 1 mixed pair_coeff terms from geometric mixing rule
Step          Temp          Press          PotEng        Density         KinEng         TotEng           Lx             Ly             Lz            Xlo            Xhi            Ylo            Yhi            Zlo            Zhi           Volume           Dt            Time           CPU           T/CPU          S/CPU         CPULeft
510000   361640.64      0.34282299    -178702.51      0.0042750067   1076904.1      898201.56      5200           5200           5200          -100            5100          -100            5100          -100            5100           1.40608e+11    0.5            460000         0              0              0              0
Averages over the last 501 of 1001 rows, steps 610000 to 710000:
Temp Press PotEng Density KinEng TotEng Lx Ly Lz Xlo Xhi Ylo Yhi Zlo Zhi Volume Dt
369916 0.354365 -244456 0.00427501 1.10155e+06 857091 5200 5200 5200 -100 5100 -100 5100 -100 5100 1.40608e+11 0.5
Loop time of 8.54417 on 1 procs for 200000 steps with 1000 atoms

unfix 3

fix 4 all nvt temp 370000 300 100.0

run 100000
Generated 0 of 1 mixed pair_coeff terms from geometric mixing rule
Step          Temp          Press          PotEng        Density         KinEng         TotEng           Lx             Ly             Lz            Xlo            Xhi            Ylo            Yhi            Zlo            Zhi           Volume           Dt            Time           CPU           T/CPU          S/CPU         CPULeft
710000   351898.06      0.33335551    -229379.23      0.0042750067   1047892.3      818513.1       5200           5200           5200          -100            5100          -100            5100          -100            5100           1.40608e+11    0.5            560000         0              0              0              0
Averages over the last 251 of 501 rows, steps 760000 to 810000:
Temp Press PotEng Density KinEng TotEng Lx Ly Lz Xlo Xhi Ylo Yhi Zlo Zhi Volume Dt
92929.3 0.080845 -230205 0.00427501 276728 46523 5200 5200 5200 -100 5100 -100 5100 -100 5100 1.40608e+11 0.5
Loop time of 3.83984 on 1 procs for 100000 steps with 1000 atoms

unfix 4

fix 5 all npt temp 300 300 $(100.0*dt) iso 1.0 1.0 $(1000.0*dt)
fix 5 all npt temp 300 300 50 iso 1.0 1.0 $(1000.0*dt)
fix 5 all npt temp 300 300 50 iso 1.0 1.0 500

run 300000
Generated 0 of 1 mixed pair_coeff terms from geometric mixing rule
Step          Temp          Press          PotEng        Density         KinEng         TotEng           Lx             Ly             Lz            Xlo            Xhi            Ylo            Yhi            Zlo            Zhi           Volume           Dt            Time           CPU           T/CPU          S/CPU         CPULeft
810000   1126.988      -0.018327095   -248726.46      0.0042750067   3355.9778     -245370.49      5200           5200           5200          -100            5100          -100            5100          -100            5100           1.40608e+11    0.5            610000         0              0              0              0
Averages over the last 751 of 1501 rows, steps 960000 to 1110000:
Temp Press PotEng Density KinEng TotEng Lx Ly Lz Xlo Xhi Ylo Yhi Zlo Zhi Volume Dt
342.049 0.999809 -1.20286e+06 0.0259263 1018.56 -1.20184e+06 2878.04 2878.04 2878.04 1060.98 3939.02 1060.98 3939.02 1060.98 3939.02 2.41798e+10 0.5
Loop time of 24.9555 on 1 procs for 300000 steps with 1000 atoms

# run_style
run_style verlet

# write restart
write_restart ./pgnpmf/37/equpmf1.res
System init for write_restart ...
Generated 0 of 1 mixed pair_coeff terms from geometric mixing rule
