LAMMPS (23 Jun 2022 - Update 1)
# Read restart
read_restart ./pgnpmf/37/equpmf5.res
Reading restart file ...
  restart file = 23 Jun 2022, LAMMPS = 23 Jun 2022
  restoring atom style atomic from restart
  orthogonal box = (1794.745 1794.745 1794.745) to (3205.255 3205.255 3205.255)
  restoring pair style table from restart
  1000 atoms
  read_restart CPU = 0.005 seconds

# Settings

pair_style table spline 9941

pair_coeff 1 1 ./pgnpmf/N20.txt DE_GNP 75.6
pair_coeff 2 2 ./pgnpmf/N100.txt DE_GNP 115.92
pair_coeff 1 2 ./pgnpmf/mixed_potential.txt DE_GNP 95.66

#Neigh_list Calc Frequency

neigh_modify delay 0 every 1 check yes

# Saving Frequency (50 frames)

variable ts_save equal 5000

# Dump
#dump_modify 1 first no sort id
dump 2 all cfg 50000 ./pgnpmf/37/equilibration/trajectory/dumpgen.tens_*.cfg mass type xs ys zs fx fy fz
dump_modify 2 element N20 N100

# thermo_style
thermo_style custom step temp press pe density ke etotal lx ly lz xlo xhi ylo yhi zlo zhi vol dt time cpu tpcpu spcpu cpuremain

# run info
timestep 0.5
thermo 200

# fix

fix 1 all momentum 1000 linear 1 1 1 angular
variable T equal 300
fix 2 all nvt temp 300 370000 100.0

run 100000
Generated 0 of 1 mixed pair_coeff terms from geometric mixing rule
Unused restart file global fix info:
  fix style: npt, fix ID: 5
  update every 1 steps, delay 0 steps, check yes
Step          Temp          Press          PotEng        Density         KinEng         TotEng           Lx             Ly             Lz            Xlo            Xhi            Ylo            Yhi            Zlo            Zhi           Volume           Dt            Time           CPU           T/CPU          S/CPU         CPULeft
3910000   312.22147      0.86496086    -9283195.8      0.21419943     929.74223     -9282266.1      1410.51        1410.51        1410.51        1794.745       3205.255       1794.745       3205.255       1794.745       3205.255       2.806264e+09   0.5            2160000        0              0              0              0
Averages over the last 251 of 501 rows, steps 3960000 to 4010000:
Temp Press PotEng Density KinEng TotEng Lx Ly Lz Xlo Xhi Ylo Yhi Zlo Zhi Volume Dt
277223 6.45106 -9.15851e+06 0.214199 825522 -8.33299e+06 1410.51 1410.51 1410.51 1794.74 3205.26 1794.74 3205.26 1794.74 3205.26 2.80626e+09 0.5
Loop time of 3.70577 on 4 procs for 100000 steps with 1000 atoms

unfix 2

fix 3 all nvt temp 370000 370000 $(100.0*dt) #iso 1.0 1.0 $(1000.0*dt)
fix 3 all nvt temp 370000 370000 50

run 200000
Generated 0 of 1 mixed pair_coeff terms from geometric mixing rule
Step          Temp          Press          PotEng        Density         KinEng         TotEng           Lx             Ly             Lz            Xlo            Xhi            Ylo            Yhi            Zlo            Zhi           Volume           Dt            Time           CPU           T/CPU          S/CPU         CPULeft
4010000   372009.05      15.51396      -8928134.9      0.21419943     1107779.4     -7820355.5      1410.51        1410.51        1410.51        1794.745       3205.255       1794.745       3205.255       1794.745       3205.255       2.806264e+09   0.5            2210000        0              0              0              0
Averages over the last 501 of 1001 rows, steps 4110000 to 4210000:
Temp Press PotEng Density KinEng TotEng Lx Ly Lz Xlo Xhi Ylo Yhi Zlo Zhi Volume Dt
370170 8.13465 -9.29537e+06 0.214199 1.1023e+06 -8.19307e+06 1410.51 1410.51 1410.51 1794.74 3205.26 1794.74 3205.26 1794.74 3205.26 2.80626e+09 0.5
Loop time of 7.15495 on 4 procs for 200000 steps with 1000 atoms

unfix 3

fix 4 all nvt temp 370000 300 100.0

run 100000
Generated 0 of 1 mixed pair_coeff terms from geometric mixing rule
Step          Temp          Press          PotEng        Density         KinEng         TotEng           Lx             Ly             Lz            Xlo            Xhi            Ylo            Yhi            Zlo            Zhi           Volume           Dt            Time           CPU           T/CPU          S/CPU         CPULeft
4210000   345898         6.5044291     -9859477.6      0.21419943     1030025.2     -8829452.4      1410.51        1410.51        1410.51        1794.745       3205.255       1794.745       3205.255       1794.745       3205.255       2.806264e+09   0.5            2310000        0              0              0              0
Averages over the last 251 of 501 rows, steps 4260000 to 4310000:
Temp Press PotEng Density KinEng TotEng Lx Ly Lz Xlo Xhi Ylo Yhi Zlo Zhi Volume Dt
93039.5 -14.1876 -1.09305e+07 0.214199 277056 -1.06534e+07 1410.51 1410.51 1410.51 1794.74 3205.26 1794.74 3205.26 1794.74 3205.26 2.80626e+09 0.5
Loop time of 3.53753 on 4 procs for 100000 steps with 1000 atoms

unfix 4

fix 5 all npt temp 300 300 $(100.0*dt) iso 1.0 1.0 $(1000.0*dt)
fix 5 all npt temp 300 300 50 iso 1.0 1.0 $(1000.0*dt)
fix 5 all npt temp 300 300 50 iso 1.0 1.0 500

run 300000
Generated 0 of 1 mixed pair_coeff terms from geometric mixing rule
Step          Temp          Press          PotEng        Density         KinEng         TotEng           Lx             Ly             Lz            Xlo            Xhi            Ylo            Yhi            Zlo            Zhi           Volume           Dt            Time           CPU           T/CPU          S/CPU         CPULeft
4310000   1372.7726     -23.600249     -11433653       0.21419943     4087.8823     -11429565       1410.51        1410.51        1410.51        1794.745       3205.255       1794.745       3205.255       1794.745       3205.255       2.806264e+09   0.5            2360000        0              0              0              0
Averages over the last 751 of 1501 rows, steps 4460000 to 4610000:
Temp Press PotEng Density KinEng TotEng Lx Ly Lz Xlo Xhi Ylo Yhi Zlo Zhi Volume Dt
314.531 0.985115 -1.21727e+07 0.241655 936.62 -1.21718e+07 1355.01 1355.01 1355.01 1822.49 3177.51 1822.49 3177.51 1822.49 3177.51 2.48811e+09 0.5
Loop time of 14.2829 on 4 procs for 300000 steps with 1000 atoms

# run_style
run_style verlet

# write restart
write_restart ./pgnpmf/37/equpmf6.res
System init for write_restart ...
Generated 0 of 1 mixed pair_coeff terms from geometric mixing rule
