LAMMPS (23 Jun 2022 - Update 1)
# Read restart
read_restart ./pgnpmf/37/equpmf27.res
Reading restart file ...
  restart file = 23 Jun 2022, LAMMPS = 23 Jun 2022
  restoring atom style atomic from restart
  orthogonal box = (2048.7972 2048.7972 2048.7972) to (2951.2028 2951.2028 2951.2028)
  restoring pair style table from restart
  1000 atoms
  read_restart CPU = 0.004 seconds

# Settings

pair_style table spline 9941

pair_coeff 1 1 ./pgnpmf/N20.txt DE_GNP 75.6
pair_coeff 2 2 ./pgnpmf/N100.txt DE_GNP 115.92
pair_coeff 1 2 ./pgnpmf/mixed_potential.txt DE_GNP 95.66

#Neigh_list Calc Frequency

neigh_modify delay 0 every 1 check yes

# Saving Frequency (50 frames)

variable ts_save equal 5000

# Dump
#dump_modify 1 first no sort id
dump 2 all cfg 50000 ./pgnpmf/37/equilibration/trajectory/dumpgen.tens_*.cfg mass type xs ys zs fx fy fz
dump_modify 2 element N20 N100

# thermo_style
thermo_style custom step temp press pe density ke etotal lx ly lz xlo xhi ylo yhi zlo zhi vol dt time cpu tpcpu spcpu cpuremain

# run info
timestep 0.5
thermo 200

# fix

fix 1 all momentum 1000 linear 1 1 1 angular
variable T equal 300
fix 2 all nvt temp 300 370000 100.0

run 100000
Generated 0 of 1 mixed pair_coeff terms from geometric mixing rule
Unused restart file global fix info:
  fix style: npt, fix ID: 5
  update every 1 steps, delay 0 steps, check yes
Step          Temp          Press          PotEng        Density         KinEng         TotEng           Lx             Ly             Lz            Xlo            Xhi            Ylo            Yhi            Zlo            Zhi           Volume           Dt            Time           CPU           T/CPU          S/CPU         CPULeft
19310000   306.17651      0.79344176    -37961027       0.81797763     911.74136     -37960115       902.40564      902.40564      902.40564      2048.7972      2951.2028      2048.7972      2951.2028      2048.7972      2951.2028      7.3486135e+08  0.5            9860000        0              0              0              0
Averages over the last 251 of 501 rows, steps 19360000 to 19410000:
Temp Press PotEng Density KinEng TotEng Lx Ly Lz Xlo Xhi Ylo Yhi Zlo Zhi Volume Dt
277013 121.645 -3.72967e+07 0.817978 824898 -3.64718e+07 902.406 902.406 902.406 2048.8 2951.2 2048.8 2951.2 2048.8 2951.2 7.34861e+08 0.5
Loop time of 8.02061 on 4 procs for 100000 steps with 1000 atoms

unfix 2

fix 3 all nvt temp 370000 370000 $(100.0*dt) #iso 1.0 1.0 $(1000.0*dt)
fix 3 all nvt temp 370000 370000 50

run 200000
Generated 0 of 1 mixed pair_coeff terms from geometric mixing rule
Step          Temp          Press          PotEng        Density         KinEng         TotEng           Lx             Ly             Lz            Xlo            Xhi            Ylo            Yhi            Zlo            Zhi           Volume           Dt            Time           CPU           T/CPU          S/CPU         CPULeft
19410000   370306.02     -2.5877981     -36859748       0.81797763     1102708.1     -35757040       902.40564      902.40564      902.40564      2048.7972      2951.2028      2048.7972      2951.2028      2048.7972      2951.2028      7.3486135e+08  0.5            9910000        0              0              0              0
Averages over the last 501 of 1001 rows, steps 19510000 to 19610000:
Temp Press PotEng Density KinEng TotEng Lx Ly Lz Xlo Xhi Ylo Yhi Zlo Zhi Volume Dt
369934 12.4726 -3.57888e+07 0.817978 1.1016e+06 -3.46872e+07 902.406 902.406 902.406 2048.8 2951.2 2048.8 2951.2 2048.8 2951.2 7.34861e+08 0.5
Loop time of 16.3287 on 4 procs for 200000 steps with 1000 atoms

unfix 3

fix 4 all nvt temp 370000 300 100.0

run 100000
Generated 0 of 1 mixed pair_coeff terms from geometric mixing rule
Step          Temp          Press          PotEng        Density         KinEng         TotEng           Lx             Ly             Lz            Xlo            Xhi            Ylo            Yhi            Zlo            Zhi           Volume           Dt            Time           CPU           T/CPU          S/CPU         CPULeft
19610000   374875.1      -9.8153353     -35870753       0.81797763     1116314       -34754439       902.40564      902.40564      902.40564      2048.7972      2951.2028      2048.7972      2951.2028      2048.7972      2951.2028      7.3486135e+08  0.5            10010000       0              0              0              0
Averages over the last 251 of 501 rows, steps 19660000 to 19710000:
Temp Press PotEng Density KinEng TotEng Lx Ly Lz Xlo Xhi Ylo Yhi Zlo Zhi Volume Dt
93175.3 -259.91 -3.71133e+07 0.817978 277460 -3.68359e+07 902.406 902.406 902.406 2048.8 2951.2 2048.8 2951.2 2048.8 2951.2 7.34861e+08 0.5
Loop time of 8.40826 on 4 procs for 100000 steps with 1000 atoms

unfix 4

fix 5 all npt temp 300 300 $(100.0*dt) iso 1.0 1.0 $(1000.0*dt)
fix 5 all npt temp 300 300 50 iso 1.0 1.0 $(1000.0*dt)
fix 5 all npt temp 300 300 50 iso 1.0 1.0 500

run 300000
Generated 0 of 1 mixed pair_coeff terms from geometric mixing rule
Step          Temp          Press          PotEng        Density         KinEng         TotEng           Lx             Ly             Lz            Xlo            Xhi            Ylo            Yhi            Zlo            Zhi           Volume           Dt            Time           CPU           T/CPU          S/CPU         CPULeft
19710000   1363.6974     -277.32181     -37607847       0.81797763     4060.8579     -37603787       902.40564      902.40564      902.40564      2048.7972      2951.2028      2048.7972      2951.2028      2048.7972      2951.2028      7.3486135e+08  0.5            10060000       0              0              0              0
Averages over the last 751 of 1501 rows, steps 19860000 to 20010000:
Temp Press PotEng Density KinEng TotEng Lx Ly Lz Xlo Xhi Ylo Yhi Zlo Zhi Volume Dt
309.043 1.0407 -3.82741e+07 0.852932 920.276 -3.82732e+07 889.909 889.909 889.909 2055.05 2944.95 2055.05 2944.95 2055.05 2944.95 7.04757e+08 0.5
Loop time of 29.9575 on 4 procs for 300000 steps with 1000 atoms

# run_style
run_style verlet

# write restart
write_restart ./pgnpmf/37/equpmf28.res
System init for write_restart ...
Generated 0 of 1 mixed pair_coeff terms from geometric mixing rule
