LAMMPS (23 Jun 2022 - Update 1)
# Read restart
read_restart ./pgnpmf/37/equpmf70.res
Reading restart file ...
  restart file = 23 Jun 2022, LAMMPS = 23 Jun 2022
  restoring atom style atomic from restart
  orthogonal box = (2147.5335 2147.5335 2147.5335) to (2852.4665 2852.4665 2852.4665)
  restoring pair style table from restart
  1000 atoms
  read_restart CPU = 0.010 seconds

# Settings

pair_style table spline 9941

pair_coeff 1 1 ./pgnpmf/N20.txt DE_GNP 75.6
pair_coeff 2 2 ./pgnpmf/N100.txt DE_GNP 115.92
pair_coeff 1 2 ./pgnpmf/mixed_potential.txt DE_GNP 95.66

#Neigh_list Calc Frequency

neigh_modify delay 0 every 1 check yes

# Saving Frequency (50 frames)

variable ts_save equal 5000

# Dump
#dump_modify 1 first no sort id
dump 2 all cfg 50000 ./pgnpmf/37/equilibration/trajectory/dumpgen.tens_*.cfg mass type xs ys zs fx fy fz
dump_modify 2 element N20 N100

# thermo_style
thermo_style custom step temp press pe density ke etotal lx ly lz xlo xhi ylo yhi zlo zhi vol dt time cpu tpcpu spcpu cpuremain

# run info
timestep 0.1
thermo 200

# fix

fix 1 all momentum 1000 linear 1 1 1 angular
variable T equal 300
fix 2 all nvt temp 300 370000 100.0

run 100000
Generated 0 of 1 mixed pair_coeff terms from geometric mixing rule
Unused restart file global fix info:
  fix style: npt, fix ID: 5
  update every 1 steps, delay 0 steps, check yes
Step          Temp          Press          PotEng        Density         KinEng         TotEng           Lx             Ly             Lz            Xlo            Xhi            Ylo            Yhi            Zlo            Zhi           Volume           Dt            Time           CPU           T/CPU          S/CPU         CPULeft
49410000   305.21614      1.8386584     -44050570       1.7159441      908.88155     -44049661       704.9331       704.9331       704.9331       2147.5335      2852.4665      2147.5335      2852.4665      2147.5335      2852.4665      3.5030288e+08  0.1            13710000       0              0              0              0
Averages over the last 251 of 501 rows, steps 49460000 to 49510000:
Temp Press PotEng Density KinEng TotEng Lx Ly Lz Xlo Xhi Ylo Yhi Zlo Zhi Volume Dt
276905 441.121 -4.39023e+07 1.71594 824574 -4.30778e+07 704.933 704.933 704.933 2147.53 2852.47 2147.53 2852.47 2147.53 2852.47 3.50303e+08 0.1
Loop time of 6.45076 on 4 procs for 100000 steps with 1000 atoms

unfix 2

fix 3 all nvt temp 370000 370000 $(100.0*dt) #iso 1.0 1.0 $(1000.0*dt)
fix 3 all nvt temp 370000 370000 10

run 200000
Generated 0 of 1 mixed pair_coeff terms from geometric mixing rule
Step          Temp          Press          PotEng        Density         KinEng         TotEng           Lx             Ly             Lz            Xlo            Xhi            Ylo            Yhi            Zlo            Zhi           Volume           Dt            Time           CPU           T/CPU          S/CPU         CPULeft
49510000   363892.4       774.44547     -43724599       1.7159441      1083609.4     -42640990       704.9331       704.9331       704.9331       2147.5335      2852.4665      2147.5335      2852.4665      2147.5335      2852.4665      3.5030288e+08  0.1            13720000       0              0              0              0
Averages over the last 501 of 1001 rows, steps 49610000 to 49710000:
Temp Press PotEng Density KinEng TotEng Lx Ly Lz Xlo Xhi Ylo Yhi Zlo Zhi Volume Dt
370161 1356.67 -4.33678e+07 1.71594 1.10228e+06 -4.22655e+07 704.933 704.933 704.933 2147.53 2852.47 2147.53 2852.47 2147.53 2852.47 3.50303e+08 0.1
Loop time of 13.2881 on 4 procs for 200000 steps with 1000 atoms

unfix 3

fix 4 all nvt temp 370000 300 100.0

run 100000
Generated 0 of 1 mixed pair_coeff terms from geometric mixing rule
Step          Temp          Press          PotEng        Density         KinEng         TotEng           Lx             Ly             Lz            Xlo            Xhi            Ylo            Yhi            Zlo            Zhi           Volume           Dt            Time           CPU           T/CPU          S/CPU         CPULeft
49710000   380469.1       1527.8004     -43285707       1.7159441      1132972       -42152735       704.9331       704.9331       704.9331       2147.5335      2852.4665      2147.5335      2852.4665      2147.5335      2852.4665      3.5030288e+08  0.1            13740000       0              0              0              0
Averages over the last 251 of 501 rows, steps 49760000 to 49810000:
Temp Press PotEng Density KinEng TotEng Lx Ly Lz Xlo Xhi Ylo Yhi Zlo Zhi Volume Dt
96586.1 573.153 -4.37374e+07 1.71594 287617 -4.34498e+07 704.933 704.933 704.933 2147.53 2852.47 2147.53 2852.47 2147.53 2852.47 3.50303e+08 0.1
Loop time of 6.48221 on 4 procs for 100000 steps with 1000 atoms

unfix 4

fix 5 all npt temp 300 300 $(100.0*dt) iso 1.0 1.0 $(1000.0*dt)
fix 5 all npt temp 300 300 10 iso 1.0 1.0 $(1000.0*dt)
fix 5 all npt temp 300 300 10 iso 1.0 1.0 100

run 300000
Generated 0 of 1 mixed pair_coeff terms from geometric mixing rule
Step          Temp          Press          PotEng        Density         KinEng         TotEng           Lx             Ly             Lz            Xlo            Xhi            Ylo            Yhi            Zlo            Zhi           Volume           Dt            Time           CPU           T/CPU          S/CPU         CPULeft
49810000   5199.4805      131.31646     -43939317       1.7159441      15483.165     -43923834       704.9331       704.9331       704.9331       2147.5335      2852.4665      2147.5335      2852.4665      2147.5335      2852.4665      3.5030288e+08  0.1            13750000       0              0              0              0
Averages over the last 751 of 1501 rows, steps 49960000 to 50110000:
Temp Press PotEng Density KinEng TotEng Lx Ly Lz Xlo Xhi Ylo Yhi Zlo Zhi Volume Dt
306.882 0.88075 -4.41112e+07 1.72124 913.843 -4.41103e+07 704.209 704.209 704.209 2147.9 2852.1 2147.9 2852.1 2147.9 2852.1 3.49225e+08 0.1
Loop time of 23.2728 on 4 procs for 300000 steps with 1000 atoms

# run_style
run_style verlet

# write restart
write_restart ./pgnpmf/37/equpmf71.res
System init for write_restart ...
Generated 0 of 1 mixed pair_coeff terms from geometric mixing rule
