LAMMPS (23 Jun 2022 - Update 1)
# Read restart
read_restart ./pgnpmf/37/equpmf24.res
Reading restart file ...
  restart file = 23 Jun 2022, LAMMPS = 23 Jun 2022
  restoring atom style atomic from restart
  orthogonal box = (2026.1974 2026.1974 2026.1974) to (2973.8026 2973.8026 2973.8026)
  restoring pair style table from restart
  1000 atoms
  read_restart CPU = 0.004 seconds

# Settings

pair_style table spline 9941

pair_coeff 1 1 ./pgnpmf/N20.txt DE_GNP 75.6
pair_coeff 2 2 ./pgnpmf/N100.txt DE_GNP 115.92
pair_coeff 1 2 ./pgnpmf/mixed_potential.txt DE_GNP 95.66

#Neigh_list Calc Frequency

neigh_modify delay 0 every 1 check yes

# Saving Frequency (50 frames)

variable ts_save equal 5000

# Dump
#dump_modify 1 first no sort id
dump 2 all cfg 50000 ./pgnpmf/37/equilibration/trajectory/dumpgen.tens_*.cfg mass type xs ys zs fx fy fz
dump_modify 2 element N20 N100

# thermo_style
thermo_style custom step temp press pe density ke etotal lx ly lz xlo xhi ylo yhi zlo zhi vol dt time cpu tpcpu spcpu cpuremain

# run info
timestep 0.5
thermo 200

# fix

fix 1 all momentum 1000 linear 1 1 1 angular
variable T equal 300
fix 2 all nvt temp 300 370000 100.0

run 100000
Generated 0 of 1 mixed pair_coeff terms from geometric mixing rule
Unused restart file global fix info:
  fix style: npt, fix ID: 5
  update every 1 steps, delay 0 steps, check yes
Step          Temp          Press          PotEng        Density         KinEng         TotEng           Lx             Ly             Lz            Xlo            Xhi            Ylo            Yhi            Zlo            Zhi           Volume           Dt            Time           CPU           T/CPU          S/CPU         CPULeft
17210000   307.54053      2.2450345     -36663772       0.70642266     915.80318     -36662856       947.60513      947.60513      947.60513      2026.1974      2973.8026      2026.1974      2973.8026      2026.1974      2973.8026      8.5090722e+08  0.5            8810000        0              0              0              0
Averages over the last 251 of 501 rows, steps 17260000 to 17310000:
Temp Press PotEng Density KinEng TotEng Lx Ly Lz Xlo Xhi Ylo Yhi Zlo Zhi Volume Dt
277400 61.2786 -3.63394e+07 0.706423 826051 -3.55134e+07 947.605 947.605 947.605 2026.2 2973.8 2026.2 2973.8 2026.2 2973.8 8.50907e+08 0.5
Loop time of 7.67495 on 4 procs for 100000 steps with 1000 atoms

unfix 2

fix 3 all nvt temp 370000 370000 $(100.0*dt) #iso 1.0 1.0 $(1000.0*dt)
fix 3 all nvt temp 370000 370000 50

run 200000
Generated 0 of 1 mixed pair_coeff terms from geometric mixing rule
Step          Temp          Press          PotEng        Density         KinEng         TotEng           Lx             Ly             Lz            Xlo            Xhi            Ylo            Yhi            Zlo            Zhi           Volume           Dt            Time           CPU           T/CPU          S/CPU         CPULeft
17310000   370481.65      61.438375     -35781348       0.70642266     1103231.1     -34678117       947.60513      947.60513      947.60513      2026.1974      2973.8026      2026.1974      2973.8026      2026.1974      2973.8026      8.5090722e+08  0.5            8860000        0              0              0              0
Averages over the last 501 of 1001 rows, steps 17410000 to 17510000:
Temp Press PotEng Density KinEng TotEng Lx Ly Lz Xlo Xhi Ylo Yhi Zlo Zhi Volume Dt
369940 0.59842 -3.50726e+07 0.706423 1.10162e+06 -3.39709e+07 947.605 947.605 947.605 2026.2 2973.8 2026.2 2973.8 2026.2 2973.8 8.50907e+08 0.5
Loop time of 15.2836 on 4 procs for 200000 steps with 1000 atoms

unfix 3

fix 4 all nvt temp 370000 300 100.0

run 100000
Generated 0 of 1 mixed pair_coeff terms from geometric mixing rule
Step          Temp          Press          PotEng        Density         KinEng         TotEng           Lx             Ly             Lz            Xlo            Xhi            Ylo            Yhi            Zlo            Zhi           Volume           Dt            Time           CPU           T/CPU          S/CPU         CPULeft
17510000   362628.28      11.107528     -34974072       0.70642266     1079845.1     -33894227       947.60513      947.60513      947.60513      2026.1974      2973.8026      2026.1974      2973.8026      2026.1974      2973.8026      8.5090722e+08  0.5            8960000        0              0              0              0
Averages over the last 251 of 501 rows, steps 17560000 to 17610000:
Temp Press PotEng Density KinEng TotEng Lx Ly Lz Xlo Xhi Ylo Yhi Zlo Zhi Volume Dt
93088 -218.684 -3.60264e+07 0.706423 277200 -3.57492e+07 947.605 947.605 947.605 2026.2 2973.8 2026.2 2973.8 2026.2 2973.8 8.50907e+08 0.5
Loop time of 7.53654 on 4 procs for 100000 steps with 1000 atoms

unfix 4

fix 5 all npt temp 300 300 $(100.0*dt) iso 1.0 1.0 $(1000.0*dt)
fix 5 all npt temp 300 300 50 iso 1.0 1.0 $(1000.0*dt)
fix 5 all npt temp 300 300 50 iso 1.0 1.0 500

run 300000
Generated 0 of 1 mixed pair_coeff terms from geometric mixing rule
Step          Temp          Press          PotEng        Density         KinEng         TotEng           Lx             Ly             Lz            Xlo            Xhi            Ylo            Yhi            Zlo            Zhi           Volume           Dt            Time           CPU           T/CPU          S/CPU         CPULeft
17610000   1354.8937     -245.41001     -36570259       0.70642266     4034.6422     -36566224       947.60513      947.60513      947.60513      2026.1974      2973.8026      2026.1974      2973.8026      2026.1974      2973.8026      8.5090722e+08  0.5            9010000        0              0              0              0
Averages over the last 751 of 1501 rows, steps 17760000 to 17910000:
Temp Press PotEng Density KinEng TotEng Lx Ly Lz Xlo Xhi Ylo Yhi Zlo Zhi Volume Dt
309.893 1.00345 -3.71468e+07 0.7378 922.807 -3.71459e+07 933.98 933.98 933.98 2033.01 2966.99 2033.01 2966.99 2033.01 2966.99 8.14731e+08 0.5
Loop time of 27.328 on 4 procs for 300000 steps with 1000 atoms

# run_style
run_style verlet

# write restart
write_restart ./pgnpmf/37/equpmf25.res
System init for write_restart ...
Generated 0 of 1 mixed pair_coeff terms from geometric mixing rule
