LAMMPS (23 Jun 2022 - Update 1)
# Read restart
read_restart ./pgnpmf/37/equpmf43.res
Reading restart file ...
  restart file = 23 Jun 2022, LAMMPS = 23 Jun 2022
  restoring atom style atomic from restart
  orthogonal box = (2126.7164 2126.7164 2126.7164) to (2873.2836 2873.2836 2873.2836)
  restoring pair style table from restart
  1000 atoms
  read_restart CPU = 0.007 seconds

# Settings

pair_style table spline 9941

pair_coeff 1 1 ./pgnpmf/N20.txt DE_GNP 75.6
pair_coeff 2 2 ./pgnpmf/N100.txt DE_GNP 115.92
pair_coeff 1 2 ./pgnpmf/mixed_potential.txt DE_GNP 95.66

#Neigh_list Calc Frequency

neigh_modify delay 0 every 1 check yes

# Saving Frequency (50 frames)

variable ts_save equal 5000

# Dump
#dump_modify 1 first no sort id
dump 2 all cfg 50000 ./pgnpmf/37/equilibration/trajectory/dumpgen.tens_*.cfg mass type xs ys zs fx fy fz
dump_modify 2 element N20 N100

# thermo_style
thermo_style custom step temp press pe density ke etotal lx ly lz xlo xhi ylo yhi zlo zhi vol dt time cpu tpcpu spcpu cpuremain

# run info
timestep 0.1
thermo 200

# fix

fix 1 all momentum 1000 linear 1 1 1 angular
variable T equal 300
fix 2 all nvt temp 300 370000 100.0

run 100000
Generated 0 of 1 mixed pair_coeff terms from geometric mixing rule
Unused restart file global fix info:
  fix style: npt, fix ID: 5
  update every 1 steps, delay 0 steps, check yes
Step          Temp          Press          PotEng        Density         KinEng         TotEng           Lx             Ly             Lz            Xlo            Xhi            Ylo            Yhi            Zlo            Zhi           Volume           Dt            Time           CPU           T/CPU          S/CPU         CPULeft
30510000   306.65473      1.8288962     -41407796       1.4445754      913.16543     -41406883       746.56715      746.56715      746.56715      2126.7164      2873.2836      2126.7164      2873.2836      2126.7164      2873.2836      4.1610854e+08  0.1            11820000       0              0              0              0
Averages over the last 251 of 501 rows, steps 30560000 to 30610000:
Temp Press PotEng Density KinEng TotEng Lx Ly Lz Xlo Xhi Ylo Yhi Zlo Zhi Volume Dt
277335 592.933 -4.13367e+07 1.44458 825856 -4.05109e+07 746.567 746.567 746.567 2126.72 2873.28 2126.72 2873.28 2126.72 2873.28 4.16109e+08 0.1
Loop time of 5.70716 on 4 procs for 100000 steps with 1000 atoms

unfix 2

fix 3 all nvt temp 370000 370000 $(100.0*dt) #iso 1.0 1.0 $(1000.0*dt)
fix 3 all nvt temp 370000 370000 10

run 200000
Generated 0 of 1 mixed pair_coeff terms from geometric mixing rule
Step          Temp          Press          PotEng        Density         KinEng         TotEng           Lx             Ly             Lz            Xlo            Xhi            Ylo            Yhi            Zlo            Zhi           Volume           Dt            Time           CPU           T/CPU          S/CPU         CPULeft
30610000   381940.72      1027.5546     -41141511       1.4445754      1137354.3     -40004157       746.56715      746.56715      746.56715      2126.7164      2873.2836      2126.7164      2873.2836      2126.7164      2873.2836      4.1610854e+08  0.1            11830000       0              0              0              0
Averages over the last 501 of 1001 rows, steps 30710000 to 30810000:
Temp Press PotEng Density KinEng TotEng Lx Ly Lz Xlo Xhi Ylo Yhi Zlo Zhi Volume Dt
370037 1036.2 -4.06193e+07 1.44458 1.10191e+06 -3.95174e+07 746.567 746.567 746.567 2126.72 2873.28 2126.72 2873.28 2126.72 2873.28 4.16109e+08 0.1
Loop time of 11.8254 on 4 procs for 200000 steps with 1000 atoms

unfix 3

fix 4 all nvt temp 370000 300 100.0

run 100000
Generated 0 of 1 mixed pair_coeff terms from geometric mixing rule
Step          Temp          Press          PotEng        Density         KinEng         TotEng           Lx             Ly             Lz            Xlo            Xhi            Ylo            Yhi            Zlo            Zhi           Volume           Dt            Time           CPU           T/CPU          S/CPU         CPULeft
30810000   355545.53      789.24801     -40418724       1.4445754      1058753.9     -39359970       746.56715      746.56715      746.56715      2126.7164      2873.2836      2126.7164      2873.2836      2126.7164      2873.2836      4.1610854e+08  0.1            11850000       0              0              0              0
Averages over the last 251 of 501 rows, steps 30860000 to 30910000:
Temp Press PotEng Density KinEng TotEng Lx Ly Lz Xlo Xhi Ylo Yhi Zlo Zhi Volume Dt
96144 -147.776 -4.0671e+07 1.44458 286300 -4.03847e+07 746.567 746.567 746.567 2126.72 2873.28 2126.72 2873.28 2126.72 2873.28 4.16109e+08 0.1
Loop time of 5.70196 on 4 procs for 100000 steps with 1000 atoms

unfix 4

fix 5 all npt temp 300 300 $(100.0*dt) iso 1.0 1.0 $(1000.0*dt)
fix 5 all npt temp 300 300 10 iso 1.0 1.0 $(1000.0*dt)
fix 5 all npt temp 300 300 10 iso 1.0 1.0 100

run 300000
Generated 0 of 1 mixed pair_coeff terms from geometric mixing rule
Step          Temp          Press          PotEng        Density         KinEng         TotEng           Lx             Ly             Lz            Xlo            Xhi            Ylo            Yhi            Zlo            Zhi           Volume           Dt            Time           CPU           T/CPU          S/CPU         CPULeft
30910000   5067.8899     -502.51253     -40859133       1.4445754      15091.311     -40844042       746.56715      746.56715      746.56715      2126.7164      2873.2836      2126.7164      2873.2836      2126.7164      2873.2836      4.1610854e+08  0.1            11860000       0              0              0              0
Averages over the last 751 of 1501 rows, steps 31060000 to 31210000:
Temp Press PotEng Density KinEng TotEng Lx Ly Lz Xlo Xhi Ylo Yhi Zlo Zhi Volume Dt
307.697 1.04337 -4.125e+07 1.47446 916.269 -4.1249e+07 741.489 741.489 741.489 2129.26 2870.74 2129.26 2870.74 2129.26 2870.74 4.07675e+08 0.1
Loop time of 20.3521 on 4 procs for 300000 steps with 1000 atoms

# run_style
run_style verlet

# write restart
write_restart ./pgnpmf/37/equpmf44.res
System init for write_restart ...
Generated 0 of 1 mixed pair_coeff terms from geometric mixing rule
