LAMMPS (23 Jun 2022 - Update 1)
# Read restart
read_restart ./pgnpmf/trial2/37/equpmf71.res
Reading restart file ...
  restart file = 23 Jun 2022, LAMMPS = 23 Jun 2022
  restoring atom style atomic from restart
  orthogonal box = (2148.0321 2148.0321 2148.0321) to (2851.9679 2851.9679 2851.9679)
  restoring pair style table from restart
  1000 atoms
  read_restart CPU = 0.033 seconds

# Settings

pair_style table spline 9941

pair_coeff 1 1 ./pgnpmf/N20.txt DE_GNP 75.6
pair_coeff 2 2 ./pgnpmf/N100.txt DE_GNP 115.92
pair_coeff 1 2 ./pgnpmf/mixed_potential.txt DE_GNP 95.66

#Neigh_list Calc Frequency

neigh_modify delay 0 every 1 check yes

# computes
compute vor all voronoi/atom

# Saving Frequency (50 frames)
variable ts_save equal 5000

# Dump
dump 1 all custom 100000 ./pgnpmf/trial2/37/voronoi/voronoi_1_1.custom type x y z ix iy iz c_vor[1] c_vor[2]
dump_modify 1 first no sort id
#dump_modify 2 element N20 N100

# thermo_style
thermo_style custom step temp press pe density ke etotal lx ly lz xlo xhi ylo yhi zlo zhi vol dt time cpu tpcpu spcpu cpuremain

# run info
timestep 0.5
thermo 200

# fix

fix 1 all momentum 1000 linear 1 1 1 angular
variable T equal 300
fix 2 all nvt temp 300 300 100.0

run 100000
Generated 0 of 1 mixed pair_coeff terms from geometric mixing rule
Unused restart file global fix info:
  fix style: npt, fix ID: 5
  update every 1 steps, delay 0 steps, check yes
Step          Temp          Press          PotEng        Density         KinEng         TotEng           Lx             Ly             Lz            Xlo            Xhi            Ylo            Yhi            Zlo            Zhi           Volume           Dt            Time           CPU           T/CPU          S/CPU         CPULeft
50110000   305.71443      0.14079117    -44155889       1.723248       910.36537     -44154979       703.93574      703.93574      703.93574      2148.0321      2851.9679      2148.0321      2851.9679      2148.0321      2851.9679      3.4881813e+08  0.5            13780000       0              0              0              0
Averages over the last 251 of 501 rows, steps 50160000 to 50210000:
Temp Press PotEng Density KinEng TotEng Lx Ly Lz Xlo Xhi Ylo Yhi Zlo Zhi Volume Dt
328.827 -215.334 -4.42579e+07 1.72325 979.19 -4.42569e+07 703.936 703.936 703.936 2148.03 2851.97 2148.03 2851.97 2148.03 2851.97 3.48818e+08 0.5
Loop time of 7.14032 on 4 procs for 100000 steps with 1000 atoms

# run_style
run_style verlet
